<?xml version="1.0" ?>
<routes>
	<vType accel="2.6" color="1,1,0" decel="4.5" id="vtype0" length="2.5" maxSpeed="14" minGap="2.5" sigma="0.5"/>
	<route edges="0/3to1/3 1/3to2/3 2/3to3/3 3/3to3/2 3/2to3/1 3/1to3/0" id="route0"/>
	<flow begin="0" id="flow0" number="60000" period="1" route="route0" type="vtype0"/>
  <route edges="3/6to3/5 3/5to3/4 3/4to3/3 3/3to4/3 4/3to5/3 5/3to6/3" id="route1"/>
	<flow begin="0" id="flow1" number="60000" period="1" route="route1" type="vtype0"/>
</routes>
