<?xml version="1.0" ?>
<routes>
	<vType accel="2.6" color="1,1,0" decel="4.5" id="vtype0" length="2.5" maxSpeed="14" minGap="2.5" sigma="0.5"/>
	<route edges="0/4to1/4 1/4to2/4 2/4to3/4 3/4to4/4 4/4to4/3 4/3to4/2 4/2to4/1" id="route0"/>
	<flow begin="200" id="flow0" number="6000" period="0.5" route="route0" type="vtype0"/>
  <route edges="4/8to4/7 4/7to4/6 4/6to4/5 4/5to4/4 4/4to5/4 5/4to6/4 6/4to7/4" id="route1"/>
	<flow begin="200" id="flow1" number="6000" period="0.5" route="route1" type="vtype0"/>
</routes>
