<?xml version="1.0" encoding="UTF-8"?>

<!-- generated on Sun Dec 23 17:10:02 2018 by SUMO netgenerate Version 0.32.0
<?xml version="1.0" encoding="UTF-8"?>

<configuration xmlns:xsi="http://www.w3.org/2001/XMLSchema-instance" xsi:noNamespaceSchemaLocation="http://sumo.dlr.de/xsd/netgenerateConfiguration.xsd">

    <grid_network>
        <grid value="true"/>
        <grid.number value="7"/>
        <grid.length value="100"/>
    </grid_network>

</configuration>
-->

<net version="0.27" xmlns:xsi="http://www.w3.org/2001/XMLSchema-instance" xsi:noNamespaceSchemaLocation="http://sumo.dlr.de/xsd/net_file.xsd">

    <location netOffset="0.00,0.00" convBoundary="0.00,0.00,600.00,600.00" origBoundary="0.00,0.00,600.00,600.00" projParameter="+proj=tmerc +ellps=WGS84 +datum=WGS84 +units=m +no_defs"/>

    <edge id=":0/0_0" function="internal">
        <lane id=":0/0_0_0" index="0" speed="13.90" length="7.90" shape="-1.65,3.25 -1.34,1.11 -0.43,-0.43 1.11,-1.34 3.25,-1.65"/>
    </edge>
    <edge id=":0/0_1" function="internal">
        <lane id=":0/0_1_0" index="0" speed="13.90" length="2.80" shape="-1.65,3.25 -0.83,2.01 0.00,1.60 0.35,1.77"/>
    </edge>
    <edge id=":0/0_4" function="internal">
        <lane id=":0/0_4_0" index="0" speed="13.90" length="2.02" shape="0.35,1.77 0.83,2.01 1.65,3.25"/>
    </edge>
    <edge id=":0/0_2" function="internal">
        <lane id=":0/0_2_0" index="0" speed="13.90" length="2.58" shape="3.25,1.65 2.55,1.75 2.05,2.05 1.75,2.55 1.65,3.25"/>
    </edge>
    <edge id=":0/0_3" function="internal">
        <lane id=":0/0_3_0" index="0" speed="13.90" length="2.20" shape="3.25,1.65 2.01,0.83 1.69,0.19"/>
    </edge>
    <edge id=":0/0_5" function="internal">
        <lane id=":0/0_5_0" index="0" speed="13.90" length="2.62" shape="1.69,0.19 1.60,0.00 2.01,-0.83 3.25,-1.65"/>
    </edge>
    <edge id=":0/1_0" function="internal">
        <lane id=":0/1_0_0" index="0" speed="13.90" length="9.50" shape="-1.65,104.75 -1.65,95.25"/>
    </edge>
    <edge id=":0/1_1" function="internal">
        <lane id=":0/1_1_0" index="0" speed="13.90" length="5.28" shape="-1.65,104.75 -1.25,101.95 -0.05,99.95 0.05,99.89"/>
    </edge>
    <edge id=":0/1_2" function="internal">
        <lane id=":0/1_2_0" index="0" speed="13.90" length="2.41" shape="-1.65,104.75 -0.83,103.51 0.00,103.10"/>
    </edge>
    <edge id=":0/1_9" function="internal">
        <lane id=":0/1_9_0" index="0" speed="13.90" length="5.04" shape="0.05,99.89 1.95,98.75 4.75,98.35"/>
    </edge>
    <edge id=":0/1_10" function="internal">
        <lane id=":0/1_10_0" index="0" speed="13.90" length="2.41" shape="0.00,103.10 0.83,103.51 1.65,104.75"/>
    </edge>
    <edge id=":0/1_3" function="internal">
        <lane id=":0/1_3_0" index="0" speed="13.90" length="5.00" shape="4.75,101.65 3.39,101.84 2.43,102.43 1.84,103.39 1.65,104.75"/>
    </edge>
    <edge id=":0/1_4" function="internal">
        <lane id=":0/1_4_0" index="0" speed="13.90" length="10.32" shape="4.75,101.65 1.95,101.25 -0.05,100.05 -1.25,98.05 -1.65,95.25"/>
    </edge>
    <edge id=":0/1_5" function="internal">
        <lane id=":0/1_5_0" index="0" speed="13.90" length="4.82" shape="4.75,101.65 3.51,100.82 3.10,100.00 3.51,99.17 4.75,98.35"/>
    </edge>
    <edge id=":0/1_6" function="internal">
        <lane id=":0/1_6_0" index="0" speed="13.90" length="5.00" shape="1.65,95.25 1.84,96.61 2.43,97.57 3.39,98.16 4.75,98.35"/>
    </edge>
    <edge id=":0/1_7" function="internal">
        <lane id=":0/1_7_0" index="0" speed="13.90" length="9.50" shape="1.65,95.25 1.65,104.75"/>
    </edge>
    <edge id=":0/1_8" function="internal">
        <lane id=":0/1_8_0" index="0" speed="13.90" length="2.41" shape="1.65,95.25 0.83,96.49 0.00,96.90"/>
    </edge>
    <edge id=":0/1_11" function="internal">
        <lane id=":0/1_11_0" index="0" speed="13.90" length="2.41" shape="0.00,96.90 -0.83,96.49 -1.65,95.25"/>
    </edge>
    <edge id=":0/2_0" function="internal">
        <lane id=":0/2_0_0" index="0" speed="13.90" length="9.50" shape="-1.65,204.75 -1.65,195.25"/>
    </edge>
    <edge id=":0/2_1" function="internal">
        <lane id=":0/2_1_0" index="0" speed="13.90" length="5.28" shape="-1.65,204.75 -1.25,201.95 -0.05,199.95 0.05,199.89"/>
    </edge>
    <edge id=":0/2_2" function="internal">
        <lane id=":0/2_2_0" index="0" speed="13.90" length="2.41" shape="-1.65,204.75 -0.83,203.51 0.00,203.10"/>
    </edge>
    <edge id=":0/2_9" function="internal">
        <lane id=":0/2_9_0" index="0" speed="13.90" length="5.04" shape="0.05,199.89 1.95,198.75 4.75,198.35"/>
    </edge>
    <edge id=":0/2_10" function="internal">
        <lane id=":0/2_10_0" index="0" speed="13.90" length="2.41" shape="0.00,203.10 0.83,203.51 1.65,204.75"/>
    </edge>
    <edge id=":0/2_3" function="internal">
        <lane id=":0/2_3_0" index="0" speed="13.90" length="5.00" shape="4.75,201.65 3.39,201.84 2.43,202.43 1.84,203.39 1.65,204.75"/>
    </edge>
    <edge id=":0/2_4" function="internal">
        <lane id=":0/2_4_0" index="0" speed="13.90" length="10.32" shape="4.75,201.65 1.95,201.25 -0.05,200.05 -1.25,198.05 -1.65,195.25"/>
    </edge>
    <edge id=":0/2_5" function="internal">
        <lane id=":0/2_5_0" index="0" speed="13.90" length="4.82" shape="4.75,201.65 3.51,200.83 3.10,200.00 3.51,199.18 4.75,198.35"/>
    </edge>
    <edge id=":0/2_6" function="internal">
        <lane id=":0/2_6_0" index="0" speed="13.90" length="5.00" shape="1.65,195.25 1.84,196.61 2.43,197.58 3.39,198.16 4.75,198.35"/>
    </edge>
    <edge id=":0/2_7" function="internal">
        <lane id=":0/2_7_0" index="0" speed="13.90" length="9.50" shape="1.65,195.25 1.65,204.75"/>
    </edge>
    <edge id=":0/2_8" function="internal">
        <lane id=":0/2_8_0" index="0" speed="13.90" length="2.41" shape="1.65,195.25 0.83,196.49 0.00,196.90"/>
    </edge>
    <edge id=":0/2_11" function="internal">
        <lane id=":0/2_11_0" index="0" speed="13.90" length="2.41" shape="0.00,196.90 -0.83,196.49 -1.65,195.25"/>
    </edge>
    <edge id=":0/3_0" function="internal">
        <lane id=":0/3_0_0" index="0" speed="13.90" length="9.50" shape="-1.65,304.75 -1.65,295.25"/>
    </edge>
    <edge id=":0/3_1" function="internal">
        <lane id=":0/3_1_0" index="0" speed="13.90" length="5.28" shape="-1.65,304.75 -1.25,301.95 -0.05,299.95 0.05,299.89"/>
    </edge>
    <edge id=":0/3_2" function="internal">
        <lane id=":0/3_2_0" index="0" speed="13.90" length="2.41" shape="-1.65,304.75 -0.83,303.51 0.00,303.10"/>
    </edge>
    <edge id=":0/3_9" function="internal">
        <lane id=":0/3_9_0" index="0" speed="13.90" length="5.04" shape="0.05,299.89 1.95,298.75 4.75,298.35"/>
    </edge>
    <edge id=":0/3_10" function="internal">
        <lane id=":0/3_10_0" index="0" speed="13.90" length="2.41" shape="0.00,303.10 0.83,303.51 1.65,304.75"/>
    </edge>
    <edge id=":0/3_3" function="internal">
        <lane id=":0/3_3_0" index="0" speed="13.90" length="5.00" shape="4.75,301.65 3.39,301.84 2.43,302.42 1.84,303.39 1.65,304.75"/>
    </edge>
    <edge id=":0/3_4" function="internal">
        <lane id=":0/3_4_0" index="0" speed="13.90" length="10.32" shape="4.75,301.65 1.95,301.25 -0.05,300.05 -1.25,298.05 -1.65,295.25"/>
    </edge>
    <edge id=":0/3_5" function="internal">
        <lane id=":0/3_5_0" index="0" speed="13.90" length="4.82" shape="4.75,301.65 3.51,300.83 3.10,300.00 3.51,299.18 4.75,298.35"/>
    </edge>
    <edge id=":0/3_6" function="internal">
        <lane id=":0/3_6_0" index="0" speed="13.90" length="5.00" shape="1.65,295.25 1.84,296.61 2.43,297.58 3.39,298.16 4.75,298.35"/>
    </edge>
    <edge id=":0/3_7" function="internal">
        <lane id=":0/3_7_0" index="0" speed="13.90" length="9.50" shape="1.65,295.25 1.65,304.75"/>
    </edge>
    <edge id=":0/3_8" function="internal">
        <lane id=":0/3_8_0" index="0" speed="13.90" length="2.41" shape="1.65,295.25 0.83,296.49 0.00,296.90"/>
    </edge>
    <edge id=":0/3_11" function="internal">
        <lane id=":0/3_11_0" index="0" speed="13.90" length="2.41" shape="0.00,296.90 -0.83,296.49 -1.65,295.25"/>
    </edge>
    <edge id=":0/4_0" function="internal">
        <lane id=":0/4_0_0" index="0" speed="13.90" length="9.50" shape="-1.65,404.75 -1.65,395.25"/>
    </edge>
    <edge id=":0/4_1" function="internal">
        <lane id=":0/4_1_0" index="0" speed="13.90" length="5.28" shape="-1.65,404.75 -1.25,401.95 -0.05,399.95 0.05,399.89"/>
    </edge>
    <edge id=":0/4_2" function="internal">
        <lane id=":0/4_2_0" index="0" speed="13.90" length="2.41" shape="-1.65,404.75 -0.83,403.51 0.00,403.10"/>
    </edge>
    <edge id=":0/4_9" function="internal">
        <lane id=":0/4_9_0" index="0" speed="13.90" length="5.04" shape="0.05,399.89 1.95,398.75 4.75,398.35"/>
    </edge>
    <edge id=":0/4_10" function="internal">
        <lane id=":0/4_10_0" index="0" speed="13.90" length="2.41" shape="0.00,403.10 0.83,403.51 1.65,404.75"/>
    </edge>
    <edge id=":0/4_3" function="internal">
        <lane id=":0/4_3_0" index="0" speed="13.90" length="5.00" shape="4.75,401.65 3.39,401.84 2.43,402.42 1.84,403.39 1.65,404.75"/>
    </edge>
    <edge id=":0/4_4" function="internal">
        <lane id=":0/4_4_0" index="0" speed="13.90" length="10.32" shape="4.75,401.65 1.95,401.25 -0.05,400.05 -1.25,398.05 -1.65,395.25"/>
    </edge>
    <edge id=":0/4_5" function="internal">
        <lane id=":0/4_5_0" index="0" speed="13.90" length="4.82" shape="4.75,401.65 3.51,400.83 3.10,400.00 3.51,399.18 4.75,398.35"/>
    </edge>
    <edge id=":0/4_6" function="internal">
        <lane id=":0/4_6_0" index="0" speed="13.90" length="5.00" shape="1.65,395.25 1.84,396.61 2.43,397.58 3.39,398.16 4.75,398.35"/>
    </edge>
    <edge id=":0/4_7" function="internal">
        <lane id=":0/4_7_0" index="0" speed="13.90" length="9.50" shape="1.65,395.25 1.65,404.75"/>
    </edge>
    <edge id=":0/4_8" function="internal">
        <lane id=":0/4_8_0" index="0" speed="13.90" length="2.41" shape="1.65,395.25 0.83,396.49 0.00,396.90"/>
    </edge>
    <edge id=":0/4_11" function="internal">
        <lane id=":0/4_11_0" index="0" speed="13.90" length="2.41" shape="0.00,396.90 -0.83,396.49 -1.65,395.25"/>
    </edge>
    <edge id=":0/5_0" function="internal">
        <lane id=":0/5_0_0" index="0" speed="13.90" length="9.50" shape="-1.65,504.75 -1.65,495.25"/>
    </edge>
    <edge id=":0/5_1" function="internal">
        <lane id=":0/5_1_0" index="0" speed="13.90" length="5.28" shape="-1.65,504.75 -1.25,501.95 -0.05,499.95 0.05,499.89"/>
    </edge>
    <edge id=":0/5_2" function="internal">
        <lane id=":0/5_2_0" index="0" speed="13.90" length="2.41" shape="-1.65,504.75 -0.83,503.51 0.00,503.10"/>
    </edge>
    <edge id=":0/5_9" function="internal">
        <lane id=":0/5_9_0" index="0" speed="13.90" length="5.04" shape="0.05,499.89 1.95,498.75 4.75,498.35"/>
    </edge>
    <edge id=":0/5_10" function="internal">
        <lane id=":0/5_10_0" index="0" speed="13.90" length="2.41" shape="0.00,503.10 0.83,503.51 1.65,504.75"/>
    </edge>
    <edge id=":0/5_3" function="internal">
        <lane id=":0/5_3_0" index="0" speed="13.90" length="5.00" shape="4.75,501.65 3.39,501.84 2.43,502.42 1.84,503.39 1.65,504.75"/>
    </edge>
    <edge id=":0/5_4" function="internal">
        <lane id=":0/5_4_0" index="0" speed="13.90" length="10.32" shape="4.75,501.65 1.95,501.25 -0.05,500.05 -1.25,498.05 -1.65,495.25"/>
    </edge>
    <edge id=":0/5_5" function="internal">
        <lane id=":0/5_5_0" index="0" speed="13.90" length="4.82" shape="4.75,501.65 3.51,500.82 3.10,500.00 3.51,499.18 4.75,498.35"/>
    </edge>
    <edge id=":0/5_6" function="internal">
        <lane id=":0/5_6_0" index="0" speed="13.90" length="5.00" shape="1.65,495.25 1.84,496.61 2.43,497.58 3.39,498.16 4.75,498.35"/>
    </edge>
    <edge id=":0/5_7" function="internal">
        <lane id=":0/5_7_0" index="0" speed="13.90" length="9.50" shape="1.65,495.25 1.65,504.75"/>
    </edge>
    <edge id=":0/5_8" function="internal">
        <lane id=":0/5_8_0" index="0" speed="13.90" length="2.41" shape="1.65,495.25 0.83,496.49 0.00,496.90"/>
    </edge>
    <edge id=":0/5_11" function="internal">
        <lane id=":0/5_11_0" index="0" speed="13.90" length="2.41" shape="0.00,496.90 -0.83,496.49 -1.65,495.25"/>
    </edge>
    <edge id=":0/6_0" function="internal">
        <lane id=":0/6_0_0" index="0" speed="13.90" length="7.90" shape="3.25,601.65 1.11,601.34 -0.43,600.42 -1.34,598.89 -1.65,596.75"/>
    </edge>
    <edge id=":0/6_1" function="internal">
        <lane id=":0/6_1_0" index="0" speed="13.90" length="2.80" shape="3.25,601.65 2.01,600.82 1.60,600.00 1.77,599.65"/>
    </edge>
    <edge id=":0/6_4" function="internal">
        <lane id=":0/6_4_0" index="0" speed="13.90" length="2.02" shape="1.77,599.65 2.01,599.17 3.25,598.35"/>
    </edge>
    <edge id=":0/6_2" function="internal">
        <lane id=":0/6_2_0" index="0" speed="13.90" length="2.58" shape="1.65,596.75 1.75,597.45 2.05,597.95 2.55,598.25 3.25,598.35"/>
    </edge>
    <edge id=":0/6_3" function="internal">
        <lane id=":0/6_3_0" index="0" speed="13.90" length="2.20" shape="1.65,596.75 0.83,597.99 0.19,598.31"/>
    </edge>
    <edge id=":0/6_5" function="internal">
        <lane id=":0/6_5_0" index="0" speed="13.90" length="2.62" shape="0.19,598.31 0.00,598.40 -0.83,597.99 -1.65,596.75"/>
    </edge>
    <edge id=":1/0_0" function="internal">
        <lane id=":1/0_0_0" index="0" speed="13.90" length="5.00" shape="98.35,4.75 98.16,3.39 97.57,2.43 96.61,1.84 95.25,1.65"/>
    </edge>
    <edge id=":1/0_1" function="internal">
        <lane id=":1/0_1_0" index="0" speed="13.90" length="10.32" shape="98.35,4.75 98.75,1.95 99.95,-0.05 101.95,-1.25 104.75,-1.65"/>
    </edge>
    <edge id=":1/0_2" function="internal">
        <lane id=":1/0_2_0" index="0" speed="13.90" length="4.82" shape="98.35,4.75 99.18,3.51 100.00,3.10 100.83,3.51 101.65,4.75"/>
    </edge>
    <edge id=":1/0_3" function="internal">
        <lane id=":1/0_3_0" index="0" speed="13.90" length="5.00" shape="104.75,1.65 103.39,1.84 102.43,2.43 101.84,3.39 101.65,4.75"/>
    </edge>
    <edge id=":1/0_4" function="internal">
        <lane id=":1/0_4_0" index="0" speed="13.90" length="9.50" shape="104.75,1.65 95.25,1.65"/>
    </edge>
    <edge id=":1/0_5" function="internal">
        <lane id=":1/0_5_0" index="0" speed="13.90" length="2.41" shape="104.75,1.65 103.51,0.83 103.10,0.00"/>
    </edge>
    <edge id=":1/0_9" function="internal">
        <lane id=":1/0_9_0" index="0" speed="13.90" length="2.41" shape="103.10,0.00 103.51,-0.83 104.75,-1.65"/>
    </edge>
    <edge id=":1/0_6" function="internal">
        <lane id=":1/0_6_0" index="0" speed="13.90" length="9.50" shape="95.25,-1.65 104.75,-1.65"/>
    </edge>
    <edge id=":1/0_7" function="internal">
        <lane id=":1/0_7_0" index="0" speed="13.90" length="5.28" shape="95.25,-1.65 98.05,-1.25 100.05,-0.05 100.11,0.05"/>
    </edge>
    <edge id=":1/0_8" function="internal">
        <lane id=":1/0_8_0" index="0" speed="13.90" length="2.41" shape="95.25,-1.65 96.49,-0.83 96.90,0.00"/>
    </edge>
    <edge id=":1/0_10" function="internal">
        <lane id=":1/0_10_0" index="0" speed="13.90" length="5.04" shape="100.11,0.05 101.25,1.95 101.65,4.75"/>
    </edge>
    <edge id=":1/0_11" function="internal">
        <lane id=":1/0_11_0" index="0" speed="13.90" length="2.41" shape="96.90,0.00 96.49,0.83 95.25,1.65"/>
    </edge>
    <edge id=":1/1_0" function="internal">
        <lane id=":1/1_0_0" index="0" speed="13.90" length="5.00" shape="98.35,104.75 98.16,103.39 97.57,102.43 96.61,101.84 95.25,101.65"/>
    </edge>
    <edge id=":1/1_1" function="internal">
        <lane id=":1/1_1_0" index="0" speed="13.90" length="9.50" shape="98.35,104.75 98.35,95.25"/>
    </edge>
    <edge id=":1/1_2" function="internal">
        <lane id=":1/1_2_0" index="0" speed="13.90" length="5.28" shape="98.35,104.75 98.75,101.95 99.95,99.95 100.05,99.89"/>
    </edge>
    <edge id=":1/1_3" function="internal">
        <lane id=":1/1_3_0" index="0" speed="13.90" length="2.41" shape="98.35,104.75 99.18,103.51 100.00,103.10"/>
    </edge>
    <edge id=":1/1_16" function="internal">
        <lane id=":1/1_16_0" index="0" speed="13.90" length="5.04" shape="100.05,99.89 101.95,98.75 104.75,98.35"/>
    </edge>
    <edge id=":1/1_17" function="internal">
        <lane id=":1/1_17_0" index="0" speed="13.90" length="2.41" shape="100.00,103.10 100.83,103.51 101.65,104.75"/>
    </edge>
    <edge id=":1/1_4" function="internal">
        <lane id=":1/1_4_0" index="0" speed="13.90" length="5.00" shape="104.75,101.65 103.39,101.84 102.43,102.43 101.84,103.39 101.65,104.75"/>
    </edge>
    <edge id=":1/1_5" function="internal">
        <lane id=":1/1_5_0" index="0" speed="13.90" length="9.50" shape="104.75,101.65 95.25,101.65"/>
    </edge>
    <edge id=":1/1_6" function="internal">
        <lane id=":1/1_6_0" index="0" speed="13.90" length="10.32" shape="104.75,101.65 101.95,101.25 99.95,100.05 98.75,98.05 98.35,95.25"/>
    </edge>
    <edge id=":1/1_7" function="internal">
        <lane id=":1/1_7_0" index="0" speed="13.90" length="4.82" shape="104.75,101.65 103.51,100.82 103.10,100.00 103.51,99.17 104.75,98.35"/>
    </edge>
    <edge id=":1/1_8" function="internal">
        <lane id=":1/1_8_0" index="0" speed="13.90" length="5.00" shape="101.65,95.25 101.84,96.61 102.43,97.57 103.39,98.16 104.75,98.35"/>
    </edge>
    <edge id=":1/1_9" function="internal">
        <lane id=":1/1_9_0" index="0" speed="13.90" length="9.50" shape="101.65,95.25 101.65,104.75"/>
    </edge>
    <edge id=":1/1_10" function="internal">
        <lane id=":1/1_10_0" index="0" speed="13.90" length="5.28" shape="101.65,95.25 101.25,98.05 100.05,100.05 99.95,100.11"/>
    </edge>
    <edge id=":1/1_11" function="internal">
        <lane id=":1/1_11_0" index="0" speed="13.90" length="2.41" shape="101.65,95.25 100.82,96.49 100.00,96.90"/>
    </edge>
    <edge id=":1/1_18" function="internal">
        <lane id=":1/1_18_0" index="0" speed="13.90" length="5.04" shape="99.95,100.11 98.05,101.25 95.25,101.65"/>
    </edge>
    <edge id=":1/1_19" function="internal">
        <lane id=":1/1_19_0" index="0" speed="13.90" length="2.41" shape="100.00,96.90 99.17,96.49 98.35,95.25"/>
    </edge>
    <edge id=":1/1_12" function="internal">
        <lane id=":1/1_12_0" index="0" speed="13.90" length="5.00" shape="95.25,98.35 96.61,98.16 97.57,97.57 98.16,96.61 98.35,95.25"/>
    </edge>
    <edge id=":1/1_13" function="internal">
        <lane id=":1/1_13_0" index="0" speed="13.90" length="9.50" shape="95.25,98.35 104.75,98.35"/>
    </edge>
    <edge id=":1/1_14" function="internal">
        <lane id=":1/1_14_0" index="0" speed="13.90" length="10.32" shape="95.25,98.35 98.05,98.75 100.05,99.95 101.25,101.95 101.65,104.75"/>
    </edge>
    <edge id=":1/1_15" function="internal">
        <lane id=":1/1_15_0" index="0" speed="13.90" length="4.82" shape="95.25,98.35 96.49,99.18 96.90,100.00 96.49,100.83 95.25,101.65"/>
    </edge>
    <edge id=":1/2_0" function="internal">
        <lane id=":1/2_0_0" index="0" speed="13.90" length="5.00" shape="98.35,204.75 98.16,203.39 97.57,202.42 96.61,201.84 95.25,201.65"/>
    </edge>
    <edge id=":1/2_1" function="internal">
        <lane id=":1/2_1_0" index="0" speed="13.90" length="9.50" shape="98.35,204.75 98.35,195.25"/>
    </edge>
    <edge id=":1/2_2" function="internal">
        <lane id=":1/2_2_0" index="0" speed="13.90" length="5.28" shape="98.35,204.75 98.75,201.95 99.95,199.95 100.05,199.89"/>
    </edge>
    <edge id=":1/2_3" function="internal">
        <lane id=":1/2_3_0" index="0" speed="13.90" length="2.41" shape="98.35,204.75 99.18,203.51 100.00,203.10"/>
    </edge>
    <edge id=":1/2_16" function="internal">
        <lane id=":1/2_16_0" index="0" speed="13.90" length="5.04" shape="100.05,199.89 101.95,198.75 104.75,198.35"/>
    </edge>
    <edge id=":1/2_17" function="internal">
        <lane id=":1/2_17_0" index="0" speed="13.90" length="2.41" shape="100.00,203.10 100.83,203.51 101.65,204.75"/>
    </edge>
    <edge id=":1/2_4" function="internal">
        <lane id=":1/2_4_0" index="0" speed="13.90" length="5.00" shape="104.75,201.65 103.39,201.84 102.43,202.43 101.84,203.39 101.65,204.75"/>
    </edge>
    <edge id=":1/2_5" function="internal">
        <lane id=":1/2_5_0" index="0" speed="13.90" length="9.50" shape="104.75,201.65 95.25,201.65"/>
    </edge>
    <edge id=":1/2_6" function="internal">
        <lane id=":1/2_6_0" index="0" speed="13.90" length="10.32" shape="104.75,201.65 101.95,201.25 99.95,200.05 98.75,198.05 98.35,195.25"/>
    </edge>
    <edge id=":1/2_7" function="internal">
        <lane id=":1/2_7_0" index="0" speed="13.90" length="4.82" shape="104.75,201.65 103.51,200.83 103.10,200.00 103.51,199.18 104.75,198.35"/>
    </edge>
    <edge id=":1/2_8" function="internal">
        <lane id=":1/2_8_0" index="0" speed="13.90" length="5.00" shape="101.65,195.25 101.84,196.61 102.43,197.58 103.39,198.16 104.75,198.35"/>
    </edge>
    <edge id=":1/2_9" function="internal">
        <lane id=":1/2_9_0" index="0" speed="13.90" length="9.50" shape="101.65,195.25 101.65,204.75"/>
    </edge>
    <edge id=":1/2_10" function="internal">
        <lane id=":1/2_10_0" index="0" speed="13.90" length="5.28" shape="101.65,195.25 101.25,198.05 100.05,200.05 99.95,200.11"/>
    </edge>
    <edge id=":1/2_11" function="internal">
        <lane id=":1/2_11_0" index="0" speed="13.90" length="2.41" shape="101.65,195.25 100.82,196.49 100.00,196.90"/>
    </edge>
    <edge id=":1/2_18" function="internal">
        <lane id=":1/2_18_0" index="0" speed="13.90" length="5.04" shape="99.95,200.11 98.05,201.25 95.25,201.65"/>
    </edge>
    <edge id=":1/2_19" function="internal">
        <lane id=":1/2_19_0" index="0" speed="13.90" length="2.41" shape="100.00,196.90 99.17,196.49 98.35,195.25"/>
    </edge>
    <edge id=":1/2_12" function="internal">
        <lane id=":1/2_12_0" index="0" speed="13.90" length="5.00" shape="95.25,198.35 96.61,198.16 97.57,197.57 98.16,196.61 98.35,195.25"/>
    </edge>
    <edge id=":1/2_13" function="internal">
        <lane id=":1/2_13_0" index="0" speed="13.90" length="9.50" shape="95.25,198.35 104.75,198.35"/>
    </edge>
    <edge id=":1/2_14" function="internal">
        <lane id=":1/2_14_0" index="0" speed="13.90" length="10.32" shape="95.25,198.35 98.05,198.75 100.05,199.95 101.25,201.95 101.65,204.75"/>
    </edge>
    <edge id=":1/2_15" function="internal">
        <lane id=":1/2_15_0" index="0" speed="13.90" length="4.82" shape="95.25,198.35 96.49,199.17 96.90,200.00 96.49,200.82 95.25,201.65"/>
    </edge>
    <edge id=":1/3_0" function="internal">
        <lane id=":1/3_0_0" index="0" speed="13.90" length="5.00" shape="98.35,304.75 98.16,303.39 97.57,302.42 96.61,301.84 95.25,301.65"/>
    </edge>
    <edge id=":1/3_1" function="internal">
        <lane id=":1/3_1_0" index="0" speed="13.90" length="9.50" shape="98.35,304.75 98.35,295.25"/>
    </edge>
    <edge id=":1/3_2" function="internal">
        <lane id=":1/3_2_0" index="0" speed="13.90" length="5.28" shape="98.35,304.75 98.75,301.95 99.95,299.95 100.05,299.89"/>
    </edge>
    <edge id=":1/3_3" function="internal">
        <lane id=":1/3_3_0" index="0" speed="13.90" length="2.41" shape="98.35,304.75 99.18,303.51 100.00,303.10"/>
    </edge>
    <edge id=":1/3_16" function="internal">
        <lane id=":1/3_16_0" index="0" speed="13.90" length="5.04" shape="100.05,299.89 101.95,298.75 104.75,298.35"/>
    </edge>
    <edge id=":1/3_17" function="internal">
        <lane id=":1/3_17_0" index="0" speed="13.90" length="2.41" shape="100.00,303.10 100.83,303.51 101.65,304.75"/>
    </edge>
    <edge id=":1/3_4" function="internal">
        <lane id=":1/3_4_0" index="0" speed="13.90" length="5.00" shape="104.75,301.65 103.39,301.84 102.43,302.42 101.84,303.39 101.65,304.75"/>
    </edge>
    <edge id=":1/3_5" function="internal">
        <lane id=":1/3_5_0" index="0" speed="13.90" length="9.50" shape="104.75,301.65 95.25,301.65"/>
    </edge>
    <edge id=":1/3_6" function="internal">
        <lane id=":1/3_6_0" index="0" speed="13.90" length="10.32" shape="104.75,301.65 101.95,301.25 99.95,300.05 98.75,298.05 98.35,295.25"/>
    </edge>
    <edge id=":1/3_7" function="internal">
        <lane id=":1/3_7_0" index="0" speed="13.90" length="4.82" shape="104.75,301.65 103.51,300.83 103.10,300.00 103.51,299.18 104.75,298.35"/>
    </edge>
    <edge id=":1/3_8" function="internal">
        <lane id=":1/3_8_0" index="0" speed="13.90" length="5.00" shape="101.65,295.25 101.84,296.61 102.43,297.58 103.39,298.16 104.75,298.35"/>
    </edge>
    <edge id=":1/3_9" function="internal">
        <lane id=":1/3_9_0" index="0" speed="13.90" length="9.50" shape="101.65,295.25 101.65,304.75"/>
    </edge>
    <edge id=":1/3_10" function="internal">
        <lane id=":1/3_10_0" index="0" speed="13.90" length="5.28" shape="101.65,295.25 101.25,298.05 100.05,300.05 99.95,300.11"/>
    </edge>
    <edge id=":1/3_11" function="internal">
        <lane id=":1/3_11_0" index="0" speed="13.90" length="2.41" shape="101.65,295.25 100.82,296.49 100.00,296.90"/>
    </edge>
    <edge id=":1/3_18" function="internal">
        <lane id=":1/3_18_0" index="0" speed="13.90" length="5.04" shape="99.95,300.11 98.05,301.25 95.25,301.65"/>
    </edge>
    <edge id=":1/3_19" function="internal">
        <lane id=":1/3_19_0" index="0" speed="13.90" length="2.41" shape="100.00,296.90 99.17,296.49 98.35,295.25"/>
    </edge>
    <edge id=":1/3_12" function="internal">
        <lane id=":1/3_12_0" index="0" speed="13.90" length="5.00" shape="95.25,298.35 96.61,298.16 97.57,297.58 98.16,296.61 98.35,295.25"/>
    </edge>
    <edge id=":1/3_13" function="internal">
        <lane id=":1/3_13_0" index="0" speed="13.90" length="9.50" shape="95.25,298.35 104.75,298.35"/>
    </edge>
    <edge id=":1/3_14" function="internal">
        <lane id=":1/3_14_0" index="0" speed="13.90" length="10.32" shape="95.25,298.35 98.05,298.75 100.05,299.95 101.25,301.95 101.65,304.75"/>
    </edge>
    <edge id=":1/3_15" function="internal">
        <lane id=":1/3_15_0" index="0" speed="13.90" length="4.82" shape="95.25,298.35 96.49,299.17 96.90,300.00 96.49,300.82 95.25,301.65"/>
    </edge>
    <edge id=":1/4_0" function="internal">
        <lane id=":1/4_0_0" index="0" speed="13.90" length="5.00" shape="98.35,404.75 98.16,403.39 97.57,402.42 96.61,401.84 95.25,401.65"/>
    </edge>
    <edge id=":1/4_1" function="internal">
        <lane id=":1/4_1_0" index="0" speed="13.90" length="9.50" shape="98.35,404.75 98.35,395.25"/>
    </edge>
    <edge id=":1/4_2" function="internal">
        <lane id=":1/4_2_0" index="0" speed="13.90" length="5.28" shape="98.35,404.75 98.75,401.95 99.95,399.95 100.05,399.89"/>
    </edge>
    <edge id=":1/4_3" function="internal">
        <lane id=":1/4_3_0" index="0" speed="13.90" length="2.41" shape="98.35,404.75 99.18,403.51 100.00,403.10"/>
    </edge>
    <edge id=":1/4_16" function="internal">
        <lane id=":1/4_16_0" index="0" speed="13.90" length="5.04" shape="100.05,399.89 101.95,398.75 104.75,398.35"/>
    </edge>
    <edge id=":1/4_17" function="internal">
        <lane id=":1/4_17_0" index="0" speed="13.90" length="2.41" shape="100.00,403.10 100.83,403.51 101.65,404.75"/>
    </edge>
    <edge id=":1/4_4" function="internal">
        <lane id=":1/4_4_0" index="0" speed="13.90" length="5.00" shape="104.75,401.65 103.39,401.84 102.43,402.42 101.84,403.39 101.65,404.75"/>
    </edge>
    <edge id=":1/4_5" function="internal">
        <lane id=":1/4_5_0" index="0" speed="13.90" length="9.50" shape="104.75,401.65 95.25,401.65"/>
    </edge>
    <edge id=":1/4_6" function="internal">
        <lane id=":1/4_6_0" index="0" speed="13.90" length="10.32" shape="104.75,401.65 101.95,401.25 99.95,400.05 98.75,398.05 98.35,395.25"/>
    </edge>
    <edge id=":1/4_7" function="internal">
        <lane id=":1/4_7_0" index="0" speed="13.90" length="4.82" shape="104.75,401.65 103.51,400.83 103.10,400.00 103.51,399.18 104.75,398.35"/>
    </edge>
    <edge id=":1/4_8" function="internal">
        <lane id=":1/4_8_0" index="0" speed="13.90" length="5.00" shape="101.65,395.25 101.84,396.61 102.43,397.58 103.39,398.16 104.75,398.35"/>
    </edge>
    <edge id=":1/4_9" function="internal">
        <lane id=":1/4_9_0" index="0" speed="13.90" length="9.50" shape="101.65,395.25 101.65,404.75"/>
    </edge>
    <edge id=":1/4_10" function="internal">
        <lane id=":1/4_10_0" index="0" speed="13.90" length="5.28" shape="101.65,395.25 101.25,398.05 100.05,400.05 99.95,400.11"/>
    </edge>
    <edge id=":1/4_11" function="internal">
        <lane id=":1/4_11_0" index="0" speed="13.90" length="2.41" shape="101.65,395.25 100.82,396.49 100.00,396.90"/>
    </edge>
    <edge id=":1/4_18" function="internal">
        <lane id=":1/4_18_0" index="0" speed="13.90" length="5.04" shape="99.95,400.11 98.05,401.25 95.25,401.65"/>
    </edge>
    <edge id=":1/4_19" function="internal">
        <lane id=":1/4_19_0" index="0" speed="13.90" length="2.41" shape="100.00,396.90 99.17,396.49 98.35,395.25"/>
    </edge>
    <edge id=":1/4_12" function="internal">
        <lane id=":1/4_12_0" index="0" speed="13.90" length="5.00" shape="95.25,398.35 96.61,398.16 97.57,397.58 98.16,396.61 98.35,395.25"/>
    </edge>
    <edge id=":1/4_13" function="internal">
        <lane id=":1/4_13_0" index="0" speed="13.90" length="9.50" shape="95.25,398.35 104.75,398.35"/>
    </edge>
    <edge id=":1/4_14" function="internal">
        <lane id=":1/4_14_0" index="0" speed="13.90" length="10.32" shape="95.25,398.35 98.05,398.75 100.05,399.95 101.25,401.95 101.65,404.75"/>
    </edge>
    <edge id=":1/4_15" function="internal">