<?xml version="1.0" encoding="UTF-8"?>

<!-- generated on 2018年12月12日 20時00分30秒 by Netedit Version 0.32.0
<?xml version="1.0" encoding="UTF-8"?>

<configuration xmlns:xsi="http://www.w3.org/2001/XMLSchema-instance" xsi:noNamespaceSchemaLocation="http://sumo.dlr.de/xsd/netconvertConfiguration.xsd">

    <input>
        <sumo-net-file value="grid.net.xml"/>
    </input>

    <output>
        <output-file value="grid.net.xml"/>
    </output>

    <processing>
        <no-turnarounds value="true"/>
        <offset.disable-normalization value="true"/>
        <lefthand value="false"/>
        <junctions.corner-detail value="0"/>
        <rectangular-lane-cut value="false"/>
        <walkingareas value="false"/>
    </processing>

</configuration>
-->

<net version="0.27" xmlns:xsi="http://www.w3.org/2001/XMLSchema-instance" xsi:noNamespaceSchemaLocation="http://sumo.dlr.de/xsd/net_file.xsd">

    <location netOffset="0.00,0.00" convBoundary="0.00,0.00,200.00,200.00" origBoundary="0.00,0.00,200.00,200.00" projParameter="+proj=tmerc +ellps=WGS84 +datum=WGS84 +units=m +no_defs"/>

    <edge id=":0/0_0" function="internal">
        <lane id=":0/0_0_0" index="0" speed="13.90" length="7.90" shape="-1.65,3.25 -1.34,1.11 -0.43,-0.43 1.11,-1.34 3.25,-1.65"/>
    </edge>
    <edge id=":0/0_1" function="internal">
        <lane id=":0/0_1_0" index="0" speed="13.90" length="2.58" shape="3.25,1.65 2.55,1.75 2.05,2.05 1.75,2.55 1.65,3.25"/>
    </edge>
    <edge id=":0/1_0" function="internal">
        <lane id=":0/1_0_0" index="0" speed="13.90" length="9.50" shape="-1.65,104.75 -1.65,95.25"/>
    </edge>
    <edge id=":0/1_1" function="internal">
        <lane id=":0/1_1_0" index="0" speed="13.90" length="5.00" shape="4.75,101.65 3.39,101.84 2.43,102.43 1.84,103.39 1.65,104.75"/>
    </edge>
    <edge id=":0/1_2" function="internal">
        <lane id=":0/1_2_0" index="0" speed="13.90" length="5.00" shape="1.65,95.25 1.84,96.61 2.43,97.57 3.39,98.16 4.75,98.35"/>
    </edge>
    <edge id=":0/2_0" function="internal">
        <lane id=":0/2_0_0" index="0" speed="13.90" length="7.90" shape="3.25,201.65 1.11,201.34 -0.43,200.43 -1.34,198.89 -1.65,196.75"/>
    </edge>
    <edge id=":0/2_1" function="internal">
        <lane id=":0/2_1_0" index="0" speed="13.90" length="2.58" shape="1.65,196.75 1.75,197.45 2.05,197.95 2.55,198.25 3.25,198.35"/>
    </edge>
    <edge id=":1/0_0" function="internal">
        <lane id=":1/0_0_0" index="0" speed="13.90" length="5.00" shape="98.35,4.75 98.16,3.39 97.57,2.43 96.61,1.84 95.25,1.65"/>
    </edge>
    <edge id=":1/0_1" function="internal">
        <lane id=":1/0_1_0" index="0" speed="13.90" length="5.00" shape="104.75,1.65 103.39,1.84 102.43,2.43 101.84,3.39 101.65,4.75"/>
    </edge>
    <edge id=":1/0_2" function="internal">
        <lane id=":1/0_2_0" index="0" speed="13.90" length="9.50" shape="95.25,-1.65 104.75,-1.65"/>
    </edge>
    <edge id=":1/1_0" function="internal">
        <lane id=":1/1_0_0" index="0" speed="13.90" length="5.00" shape="98.35,104.75 98.16,103.39 97.57,102.43 96.61,101.84 95.25,101.65"/>
    </edge>
    <edge id=":1/1_1" function="internal">
        <lane id=":1/1_1_0" index="0" speed="13.90" length="5.00" shape="104.75,101.65 103.39,101.84 102.43,102.43 101.84,103.39 101.65,104.75"/>
    </edge>
    <edge id=":1/1_2" function="internal">
        <lane id=":1/1_2_0" index="0" speed="13.90" length="5.00" shape="101.65,95.25 101.84,96.61 102.43,97.57 103.39,98.16 104.75,98.35"/>
    </edge>
    <edge id=":1/1_3" function="internal">
        <lane id=":1/1_3_0" index="0" speed="13.90" length="5.00" shape="95.25,98.35 96.61,98.16 97.57,97.57 98.16,96.61 98.35,95.25"/>
    </edge>
    <edge id=":1/2_0" function="internal">
        <lane id=":1/2_0_0" index="0" speed="13.90" length="9.50" shape="104.75,201.65 95.25,201.65"/>
    </edge>
    <edge id=":1/2_1" function="internal">
        <lane id=":1/2_1_0" index="0" speed="13.90" length="5.00" shape="101.65,195.25 101.84,196.61 102.43,197.57 103.39,198.16 104.75,198.35"/>
    </edge>
    <edge id=":1/2_2" function="internal">
        <lane id=":1/2_2_0" index="0" speed="13.90" length="5.00" shape="95.25,198.35 96.61,198.16 97.57,197.57 98.16,196.61 98.35,195.25"/>
    </edge>
    <edge id=":2/0_0" function="internal">
        <lane id=":2/0_0_0" index="0" speed="13.90" length="2.58" shape="198.35,3.25 198.25,2.55 197.95,2.05 197.45,1.75 196.75,1.65"/>
    </edge>
    <edge id=":2/0_1" function="internal">
        <lane id=":2/0_1_0" index="0" speed="13.90" length="7.90" shape="196.75,-1.65 198.89,-1.34 200.42,-0.43 201.34,1.11 201.65,3.25"/>
    </edge>
    <edge id=":2/1_0" function="internal">
        <lane id=":2/1_0_0" index="0" speed="13.90" length="5.00" shape="198.35,104.75 198.16,103.39 197.57,102.43 196.61,101.84 195.25,101.65"/>
    </edge>
    <edge id=":2/1_1" function="internal">
        <lane id=":2/1_1_0" index="0" speed="13.90" length="9.50" shape="201.65,95.25 201.65,104.75"/>
    </edge>
    <edge id=":2/1_2" function="internal">
        <lane id=":2/1_2_0" index="0" speed="13.90" length="5.00" shape="195.25,98.35 196.61,98.16 197.57,97.57 198.16,96.61 198.35,95.25"/>
    </edge>
    <edge id=":2/2_0" function="internal">
        <lane id=":2/2_0_0" index="0" speed="13.90" length="7.90" shape="201.65,196.75 201.34,198.89 200.43,200.42 198.89,201.34 196.75,201.65"/>
    </edge>
    <edge id=":2/2_1" function="internal">
        <lane id=":2/2_1_0" index="0" speed="13.90" length="2.58" shape="196.75,198.35 197.45,198.25 197.95,197.95 198.25,197.45 198.35,196.75"/>
    </edge>

    <edge id="0/0to0/1" from="0/0" to="0/1" priority="-1">
        <lane id="0/0to0/1_0" index="0" speed="13.90" length="92.00" shape="1.65,3.25 1.65,95.25"/>
    </edge>
    <edge id="0/0to1/0" from="0/0" to="1/0" priority="-1">
        <lane id="0/0to1/0_0" index="0" speed="13.90" length="92.00" shape="3.25,-1.65 95.25,-1.65"/>
    </edge>
    <edge id="0/1to0/0" from="0/1" to="0/0" priority="-1">
        <lane id="0/1to0/0_0" index="0" speed="13.90" length="92.00" shape="-1.65,95.25 -1.65,3.25"/>
    </edge>
    <edge id="0/1to0/2" from="0/1" to="0/2" priority="-1">
        <lane id="0/1to0/2_0" index="0" speed="13.90" length="92.00" shape="1.65,104.75 1.65,196.75"/>
    </edge>
    <edge id="0/1to1/1" from="0/1" to="1/1" priority="-1">
        <lane id="0/1to1/1_0" index="0" speed="13.90" length="90.50" shape="4.75,98.35 95.25,98.35"/>
    </edge>
    <edge id="0/2to0/1" from="0/2" to="0/1" priority="-1">
        <lane id="0/2to0/1_0" index="0" speed="13.90" length="92.00" shape="-1.65,196.75 -1.65,104.75"/>
    </edge>
    <edge id="0/2to1/2" from="0/2" to="1/2" priority="-1">
        <lane id="0/2to1/2_0" index="0" speed="13.90" length="92.00" shape="3.25,198.35 95.25,198.35"/>
    </edge>
    <edge id="1/0to0/0" from="1/0" to="0/0" priority="-1">
        <lane id="1/0to0/0_0" index="0" speed="13.90" length="92.00" shape="95.25,1.65 3.25,1.65"/>
    </edge>
    <edge id="1/0to1/1" from="1/0" to="1/1" priority="-1">
        <lane id="1/0to1/1_0" index="0" speed="13.90" length="90.50" shape="101.65,4.75 101.65,95.25"/>
    </edge>
    <edge id="1/0to2/0" from="1/0" to="2/0" priority="-1">
        <lane id="1/0to2/0_0" index="0" speed="13.90" length="92.00" shape="104.75,-1.65 196.75,-1.65"/>
    </edge>
    <edge id="1/1to0/1" from="1/1" to="0/1" priority="-1">
        <lane id="1/1to0/1_0" index="0" speed="13.90" length="90.50" shape="95.25,101.65 4.75,101.65"/>
    </edge>
    <edge id="1/1to1/0" from="1/1" to="1/0" priority="-1">
        <lane id="1/1to1/0_0" index="0" speed="13.90" length="90.50" shape="98.35,95.25 98.35,4.75"/>
    </edge>
    <edge id="1/1to1/2" from="1/1" to="1/2" priority="-1">
        <lane id="1/1to1/2_0" index="0" speed="13.90" length="90.50" shape="101.65,104.75 101.65,195.25"/>
    </edge>
    <edge id="1/1to2/1" from="1/1" to="2/1" priority="-1">
        <lane id="1/1to2/1_0" index="0" speed="13.90" length="90.50" shape="104.75,98.35 195.25,98.35"/>
    </edge>
    <edge id="1/2to0/2" from="1/2" to="0/2" priority="-1">
        <lane id="1/2to0/2_0" index="0" speed="13.90" length="92.00" shape="95.25,201.65 3.25,201.65"/>
    </edge>
    <edge id="1/2to1/1" from="1/2" to="1/1" priority="-1">
        <lane id="1/2to1/1_0" index="0" speed="13.90" length="90.50" shape="98.35,195.25 98.35,104.75"/>
    </edge>
    <edge id="1/2to2/2" from="1/2" to="2/2" priority="-1">
        <lane id="1/2to2/2_0" index="0" speed="13.90" length="92.00" shape="104.75,198.35 196.75,198.35"/>
    </edge>
    <edge id="2/0to1/0" from="2/0" to="1/0" priority="-1">
        <lane id="2/0to1/0_0" index="0" speed="13.90" length="92.00" shape="196.75,1.65 104.75,1.65"/>
    </edge>
    <edge id="2/0to2/1" from="2/0" to="2/1" priority="-1">
        <lane id="2/0to2/1_0" index="0" speed="13.90" length="92.00" shape="201.65,3.25 201.65,95.25"/>
    </edge>
    <edge id="2/1to1/1" from="2/1" to="1/1" priority="-1">
        <lane id="2/1to1/1_0" index="0" speed="13.90" length="90.50" shape="195.25,101.65 104.75,101.65"/>
    </edge>
    <edge id="2/1to2/0" from="2/1" to="2/0" priority="-1">
        <lane id="2/1to2/0_0" index="0" speed="13.90" length="92.00" shape="198.35,95.25 198.35,3.25"/>
    </edge>
    <edge id="2/1to2/2" from="2/1" to="2/2" priority="-1">
        <lane id="2/1to2/2_0" index="0" speed="13.90" length="92.00" shape="201.65,104.75 201.65,196.75"/>
    </edge>
    <edge id="2/2to1/2" from="2/2" to="1/2" priority="-1">
        <lane id="2/2to1/2_0" index="0" speed="13.90" length="92.00" shape="196.75,201.65 104.75,201.65"/>
    </edge>
    <edge id="2/2to2/1" from="2/2" to="2/1" priority="-1">
        <lane id="2/2to2/1_0" index="0" speed="13.90" length="92.00" shape="198.35,196.75 198.35,104.75"/>
    </edge>

    <junction id="0/0" type="priority" x="0.00" y="0.00" incLanes="0/1to0/0_0 1/0to0/0_0" intLanes=":0/0_0_0 :0/0_1_0" shape="-3.25,3.25 3.25,3.25 3.25,-3.25">
        <request index="0" response="00" foes="00" cont="0"/>
        <request index="1" response="00" foes="00" cont="0"/>
    </junction>
    <junction id="0/1" type="priority" x="0.00" y="100.00" incLanes="0/2to0/1_0 1/1to0/1_0 0/0to0/1_0" intLanes=":0/1_0_0 :0/1_1_0 :0/1_2_0" shape="-3.25,104.75 3.25,104.75 4.75,103.25 4.75,96.75 3.25,95.25 -3.25,95.25">
        <request index="0" response="000" foes="000" cont="0"/>
        <request index="1" response="000" foes="000" cont="0"/>
        <request index="2" response="000" foes="000" cont="0"/>
    </junction>
    <junction id="0/2" type="priority" x="0.00" y="200.00" incLanes="1/2to0/2_0 0/1to0/2_0" intLanes=":0/2_0_0 :0/2_1_0" shape="3.25,203.25 3.25,196.75 -3.25,196.75">
        <request index="0" response="00" foes="00" cont="0"/>
        <request index="1" response="00" foes="00" cont="0"/>
    </junction>
    <junction id="1/0" type="priority" x="100.00" y="0.00" incLanes="1/1to1/0_0 2/0to1/0_0 0/0to1/0_0" intLanes=":1/0_0_0 :1/0_1_0 :1/0_2_0" shape="96.75,4.75 103.25,4.75 104.75,3.25 104.75,-3.25 95.25,-3.25 95.25,3.25">
        <request index="0" response="000" foes="000" cont="0"/>
        <request index="1" response="000" foes="000" cont="0"/>
        <request index="2" response="000" foes="000" cont="0"/>
    </junction>
    <junction id="1/1" type="priority" x="100.00" y="100.00" incLanes="1/2to1/1_0 2/1to1/1_0 1/0to1/1_0 0/1to1/1_0" intLanes=":1/1_0_0 :1/1_1_0 :1/1_2_0 :1/1_3_0" shape="96.75,104.75 103.25,104.75 104.75,103.25 104.75,96.75 103.25,95.25 96.75,95.25 95.25,96.75 95.25,103.25">
        <request index="0" response="0000" foes="0000" cont="0"/>
        <request index="1" response="0000" foes="0000" cont="0"/>
        <request index="2" response="0000" foes="0000" cont="0"/>
        <request index="3" response="0000" foes="0000" cont="0"/>
    </junction>
    <junction id="1/2" type="priority" x="100.00" y="200.00" incLanes="2/2to1/2_0 1/1to1/2_0 0/2to1/2_0" intLanes=":1/2_0_0 :1/2_1_0 :1/2_2_0" shape="104.75,203.25 104.75,196.75 103.25,195.25 96.75,195.25 95.25,196.75 95.25,203.25">
        <request index="0" response="000" foes="000" cont="0"/>
        <request index="1" response="000" foes="000" cont="0"/>
        <request index="2" response="000" foes="000" cont="0"/>
    </junction>
    <junction id="2/0" type="priority" x="200.00" y="0.00" incLanes="2/1to2/0_0 1/0to2/0_0" intLanes=":2/0_0_0 :2/0_1_0" shape="196.75,3.25 203.25,3.25 196.75,-3.25">
        <request index="0" response="00" foes="00" cont="0"/>
        <request index="1" response="00" foes="00" cont="0"/>
    </junction>
    <junction id="2/1" type="priority" x="200.00" y="100.00" incLanes="2/2to2/1_0 2/0to2/1_0 1/1to2/1_0" intLanes=":2/1_0_0 :2/1_1_0 :2/1_2_0" shape="196.75,104.75 203.25,104.75 203.25,95.25 196.75,95.25 195.25,96.75 195.25,103.25">
        <request index="0" response="000" foes="000" cont="0"/>
        <request index="1" response="000" foes="000" cont="0"/>
        <request index="2" response="000" foes="000" cont="0"/>
    </junction>
    <junction id="2/2" type="priority" x="200.00" y="200.00" incLanes="2/1to2/2_0 1/2to2/2_0" intLanes=":2/2_0_0 :2/2_1_0" shape="203.25,196.75 196.75,196.75 196.75,203.25">
        <request index="0" response="00" foes="00" cont="0"/>
        <request index="1" response="00" foes="00" cont="0"/>
    </junction>

    <connection from="0/0to0/1" to="0/1to1/1" fromLane="0" toLane="0" via=":0/1_2_0" dir="r" state="M"/>
    <connection from="0/0to1/0" to="1/0to2/0" fromLane="0" toLane="0" via=":1/0_2_0" dir="s" state="M"/>
    <connection from="0/1to0/0" to="0/0to1/0" fromLane="0" toLane="0" via=":0/0_0_0" dir="l" state="M"/>
    <connection from="0/1to0/2" to="0/2to1/2" fromLane="0" toLane="0" via=":0/2_1_0" dir="r" state="M"/>
    <connection from="0/1to1/1" to="1/1to1/0" fromLane="0" toLane="0" via=":1/1_3_0" dir="r" state="m"/>
    <connection from="0/2to0/1" to="0/1to0/0" fromLane="0" toLane="0" via=":0/1_0_0" dir="s" state="M"/>
    <connection from="0/2to1/2" to="1/2to1/1" fromLane="0" toLane="0" via=":1/2_2_0" dir="r" state="M"/>
    <connection from="1/0to0/0" to="0/0to0/1" fromLane="0" toLane="0" via=":0/0_1_0" dir="r" state="M"/>
    <connection from="1/0to1/1" to="1/1to2/1" fromLane="0" toLane="0" via=":1/1_2_0" dir="r" state="M"/>
    <connection from="1/0to2/0" to="2/0to2/1" fromLane="0" toLane="0" via=":2/0_1_0" dir="l" state="M"/>
    <connection from="1/1to0/1" to="0/1to0/2" fromLane="0" toLane="0" via=":0/1_1_0" dir="r" state="m"/>
    <connection from="1/1to1/0" to="1/0to0/0" fromLane="0" toLane="0" via=":1/0_0_0" dir="r" state="m"/>
    <connection from="1/1to1/2" to="1/2to2/2" fromLane="0" toLane="0" via=":1/2_1_0" dir="r" state="m"/>
    <connection from="1/1to2/1" to="2/1to2/0" fromLane="0" toLane="0" via=":2/1_2_0" dir="r" state="m"/>
    <connection from="1/2to0/2" to="0/2to0/1" fromLane="0" toLane="0" via=":0/2_0_0" dir="l" state="M"/>
    <connection from="1/2to1/1" to="1/1to0/1" fromLane="0" toLane="0" via=":1/1_0_0" dir="r" state="M"/>
    <connection from="1/2to2/2" to="2/2to2/1" fromLane="0" toLane="0" via=":2/2_1_0" dir="r" state="M"/>
    <connection from="2/0to1/0" to="1/0to1/1" fromLane="0" toLane="0" via=":1/0_1_0" dir="r" state="M"/>
    <connection from="2/0to2/1" to="2/1to2/2" fromLane="0" toLane="0" via=":2/1_1_0" dir="s" state="M"/>
    <connection from="2/1to1/1" to="1/1to1/2" fromLane="0" toLane="0" via=":1/1_1_0" dir="r" state="m"/>
    <connection from="2/1to2/0" to="2/0to1/0" fromLane="0" toLane="0" via=":2/0_0_0" dir="r" state="M"/>
    <connection from="2/1to2/2" to="2/2to1/2" fromLane="0" toLane="0" via=":2/2_0_0" dir="l" state="M"/>
    <connection from="2/2to1/2" to="1/2to0/2" fromLane="0" toLane="0" via=":1/2_0_0" dir="s" state="M"/>
    <connection from="2/2to2/1" to="2/1to1/1" fromLane="0" toLane="0" via=":2/1_0_0" dir="r" state="M"/>

    <connection from=":0/0_0" to="0/0to1/0" fromLane="0" toLane="0" dir="l" state="M"/>
    <connection from=":0/0_1" to="0/0to0/1" fromLane="0" toLane="0" dir="r" state="M"/>
    <connection from=":0/1_0" to="0/1to0/0" fromLane="0" toLane="0" dir="s" state="M"/>
    <connection from=":0/1_1" to="0/1to0/2" fromLane="0" toLane="0" dir="r" state="M"/>
    <connection from=":0/1_2" to="0/1to1/1" fromLane="0" toLane="0" dir="r" state="M"/>
    <connection from=":0/2_0" to="0/2to0/1" fromLane="0" toLane="0" dir="l" state="M"/>
    <connection from=":0/2_1" to="0/2to1/2" fromLane="0" toLane="0" dir="r" state="M"/>
    <connection from=":1/0_0" to="1/0to0/0" fromLane="0" toLane="0" dir="r" state="M"/>
    <connection from=":1/0_1" to="1/0to1/1" fromLane="0" toLane="0" dir="r" state="M"/>
    <connection from=":1/0_2" to="1/0to2/0" fromLane="0" toLane="0" dir="s" state="M"/>
    <connection from=":1/1_0" to="1/1to0/1" fromLane="0" toLane="0" dir="r" state="M"/>
    <connection from=":1/1_1" to="1/1to1/2" fromLane="0" toLane="0" dir="r" state="M"/>
    <connection from=":1/1_2" to="1/1to2/1" fromLane="0" toLane="0" dir="r" state="M"/>
    <connection from=":1/1_3" to="1/1to1/0" fromLane="0" toLane="0" dir="r" state="M"/>
    <connection from=":1/2_0" to="1/2to0/2" fromLane="0" toLane="0" dir="s" state="M"/>
    <connection from=":1/2_1" to="1/2to2/2" fromLane="0" toLane="0" dir="r" state="M"/>
    <connection from=":1/2_2" to="1/2to1/1" fromLane="0" toLane="0" dir="r" state="M"/>
    <connection from=":2/0_0" to="2/0to1/0" fromLane="0" toLane="0" dir="r" state="M"/>
    <connection from=":2/0_1" to="2/0to2/1" fromLane="0" toLane="0" dir="l" state="M"/>
    <connection from=":2/1_0" to="2/1to1/1" fromLane="0" toLane="0" dir="r" state="M"/>
    <connection from=":2/1_1" to="2/1to2/2" fromLane="0" toLane="0" dir="s" state="M"/>
    <connection from=":2/1_2" to="2/1to2/0" fromLane="0" toLane="0" dir="r" state="M"/>
    <connection from=":2/2_0" to="2/2to1/2" fromLane="0" toLane="0" dir="l" state="M"/>
    <connection from=":2/2_1" to="2/2to2/1" fromLane="0" toLane="0" dir="r" state="M"/>

</net>
