<?xml version="1.0" encoding="UTF-8"?>
<!-- generated on 2018-12-12 20:53:10.266456 by $Id$ via randomTrips.py
  options: <doubleminus>validate <doubleminus>min-distance=200 -e 100 -n grid.net.xml <doubleminus>flow=9 <doubleminus>route-file=grid_un_fixed.rou.xml
-->
<routes xmlns:xsi="http://www.w3.org/2001/XMLSchema-instance" xsi:noNamespaceSchemaLocation="http://sumo.dlr.de/xsd/routes_file.xsd">
    <trip id="1.0" depart="0.00" from="2/2to1/2" to="0/1to0/0"/>
    <trip id="2.0" depart="0.00" from="2/0to2/1" to="2/1to2/2"/>
    <trip id="8.0" depart="0.00" from="2/0to2/1" to="2/1to2/2"/>
    <trip id="1.1" depart="9.00" from="2/2to1/2" to="0/1to0/0"/>
    <trip id="2.1" depart="9.00" from="2/0to2/1" to="2/1to2/2"/>
    <trip id="8.1" depart="9.00" from="2/0to2/1" to="2/1to2/2"/>
    <trip id="1.2" depart="18.00" from="2/2to1/2" to="0/1to0/0"/>
    <trip id="2.2" depart="18.00" from="2/0to2/1" to="2/1to2/2"/>
    <trip id="8.2" depart="18.00" from="2/0to2/1" to="2/1to2/2"/>
    <trip id="1.3" depart="27.00" from="2/2to1/2" to="0/1to0/0"/>
    <trip id="2.3" depart="27.00" from="2/0to2/1" to="2/1to2/2"/>
    <trip id="8.3" depart="27.00" from="2/0to2/1" to="2/1to2/2"/>
    <trip id="1.4" depart="36.00" from="2/2to1/2" to="0/1to0/0"/>
    <trip id="2.4" depart="36.00" from="2/0to2/1" to="2/1to2/2"/>
    <trip id="8.4" depart="36.00" from="2/0to2/1" to="2/1to2/2"/>
    <trip id="1.5" depart="45.00" from="2/2to1/2" to="0/1to0/0"/>
    <trip id="2.5" depart="45.00" from="2/0to2/1" to="2/1to2/2"/>
    <trip id="8.5" depart="45.00" from="2/0to2/1" to="2/1to2/2"/>
    <trip id="1.6" depart="54.00" from="2/2to1/2" to="0/1to0/0"/>
    <trip id="2.6" depart="54.00" from="2/0to2/1" to="2/1to2/2"/>
    <trip id="8.6" depart="54.00" from="2/0to2/1" to="2/1to2/2"/>
    <trip id="1.7" depart="63.00" from="2/2to1/2" to="0/1to0/0"/>
    <trip id="2.7" depart="63.00" from="2/0to2/1" to="2/1to2/2"/>
    <trip id="8.7" depart="63.00" from="2/0to2/1" to="2/1to2/2"/>
    <trip id="1.8" depart="72.00" from="2/2to1/2" to="0/1to0/0"/>
    <trip id="2.8" depart="72.00" from="2/0to2/1" to="2/1to2/2"/>
    <trip id="8.8" depart="72.00" from="2/0to2/1" to="2/1to2/2"/>
    <trip id="1.9" depart="81.00" from="2/2to1/2" to="0/1to0/0"/>
    <trip id="2.9" depart="81.00" from="2/0to2/1" to="2/1to2/2"/>
    <trip id="8.9" depart="81.00" from="2/0to2/1" to="2/1to2/2"/>
    <trip id="1.10" depart="90.00" from="2/2to1/2" to="0/1to0/0"/>
    <trip id="2.10" depart="90.00" from="2/0to2/1" to="2/1to2/2"/>
    <trip id="8.10" depart="90.00" from="2/0to2/1" to="2/1to2/2"/>
    <trip id="1.11" depart="99.00" from="2/2to1/2" to="0/1to0/0"/>
    <trip id="2.11" depart="99.00" from="2/0to2/1" to="2/1to2/2"/>
    <trip id="8.11" depart="99.00" from="2/0to2/1" to="2/1to2/2"/>
</routes>
