<?xml version="1.0" ?>
<routes>
	<vType accel="2.6" color="1,1,0" decel="4.5" id="vtype0" length="2.5" maxSpeed="14" minGap="2.5" sigma="0.5"/>
	<route edges="-27695695#20 -27695695#19 -27695695#18 -27695695#17 -27695695#16 -27695695#15 -27695695#14 -27695695#13 -27695695#12 -27695695#11 -27695695#10 -27695695#9 -27695695#8 -27695695#7 -27695695#6 -27695695#5 -27695695#4 -27695695#3 -27695695#2 -27695695#1 -27695695#0 34998006#0 34998006#1 34998006#2 34998006#3 34998006#4 34998006#5 34998006#6 34998006#7 34998006#8 34998006#9 34998006#10 34998006#11 34998006#12 34998006#13 34998006#14 34998006#15" id="route0"/>
	<flow begin="0" id="flow0" number="60000" period="1" route="route0" type="vtype0"/>
  <route edges="55686236#0 55686236#1 55686236#2 55686236#3 55686236#4 55686236#5 55686236#6 591488198#0 591488198#1 591488198#2 591488198#3 653717627#0 653717627#1 24024046#0 24024046#1 24024046#2 24024046#3 24024046#4 463284098 458283475#0 458283475#1 458283475#2 458283475#3 458283475#4 458283475#5 458283475#6 458283475#7 458283475#8 458283475#9 458283475#10 458283475#11 458283475#12 458283475#13 471186044#0 471186044#1 471186043#0 471186043#1" id="route1"/>
	<flow begin="0" id="flow1" number="60000" period="1" route="route1" type="vtype0"/>
</routes>
