<?xml version="1.0" encoding="UTF-8"?>

<!-- generated on 2018年12月05日 00時25分24秒 by Netedit Version 0.32.0
<?xml version="1.0" encoding="UTF-8"?>

<configuration xmlns:xsi="http://www.w3.org/2001/XMLSchema-instance" xsi:noNamespaceSchemaLocation="http://sumo.dlr.de/xsd/netconvertConfiguration.xsd">

    <input>
        <sumo-net-file value="/home/masahiro/m2_master_thesis/experiments/artery/extern/veins/examples/veins/bunkyo-ku_cleaned.net.xml"/>
    </input>

    <output>
        <output-file value="/home/masahiro/m2_master_thesis/experiments/artery/extern/veins/examples/veins/bunkyo-ku_cleaned.net.xml"/>
    </output>

    <processing>
        <no-turnarounds value="true"/>
        <offset.disable-normalization value="true"/>
        <lefthand value="false"/>
        <junctions.corner-detail value="0"/>
        <rectangular-lane-cut value="false"/>
        <walkingareas value="false"/>
    </processing>

</configuration>
-->

<net version="0.27" xmlns:xsi="http://www.w3.org/2001/XMLSchema-instance" xsi:noNamespaceSchemaLocation="http://sumo.dlr.de/xsd/net_file.xsd">

    <location netOffset="0.00,0.00" convBoundary="0.00,2567.25,10765.68,15146.96" origBoundary="139.686767,35.647002,139.804523,35.783414" projParameter="+proj=utm +zone=54 +ellps=WGS84 +datum=WGS84 +units=m +no_defs"/>

    <type id="highway.bridleway" priority="1" numLanes="1" speed="2.78" allow="pedestrian" oneway="1" width="2.00"/>
    <type id="highway.bus_guideway" priority="1" numLanes="1" speed="27.78" allow="bus" oneway="1"/>
    <type id="highway.cycleway" priority="1" numLanes="1" speed="8.33" allow="bicycle" oneway="0" width="1.00"/>
    <type id="highway.footway" priority="1" numLanes="1" speed="2.78" allow="pedestrian" oneway="1" width="2.00"/>
    <type id="highway.ford" priority="1" numLanes="1" speed="2.78" allow="army" oneway="0"/>
    <type id="highway.living_street" priority="3" numLanes="1" speed="2.78" disallow="tram rail_urban rail rail_electric ship" oneway="0"/>
    <type id="highway.motorway" priority="13" numLanes="2" speed="44.44" allow="private emergency authority army vip passenger hov taxi bus coach delivery truck trailer motorcycle evehicle custom1 custom2" oneway="1"/>
    <type id="highway.motorway_link" priority="12" numLanes="1" speed="22.22" allow="private emergency authority army vip passenger hov taxi bus coach delivery truck trailer motorcycle evehicle custom1 custom2" oneway="1"/>
    <type id="highway.path" priority="1" numLanes="1" speed="2.78" allow="bicycle pedestrian" oneway="1" width="2.00"/>
    <type id="highway.pedestrian" priority="1" numLanes="1" speed="2.78" allow="pedestrian" oneway="1" width="2.00"/>
    <type id="highway.primary" priority="9" numLanes="2" speed="27.78" disallow="tram rail_urban rail rail_electric ship" oneway="0"/>
    <type id="highway.primary_link" priority="8" numLanes="1" speed="22.22" disallow="tram rail_urban rail rail_electric ship" oneway="0"/>
    <type id="highway.raceway" priority="14" numLanes="2" speed="83.33" allow="vip" oneway="0"/>
    <type id="highway.residential" priority="4" numLanes="1" speed="13.89" disallow="tram rail_urban rail rail_electric ship" oneway="0"/>
    <type id="highway.secondary" priority="7" numLanes="2" speed="27.78" disallow="tram rail_urban rail rail_electric ship" oneway="0"/>
    <type id="highway.secondary_link" priority="6" numLanes="1" speed="22.22" disallow="tram rail_urban rail rail_electric ship" oneway="0"/>
    <type id="highway.service" priority="2" numLanes="1" speed="5.56" allow="delivery bicycle pedestrian" oneway="0"/>
    <type id="highway.stairs" priority="1" numLanes="1" speed="1.39" allow="pedestrian" oneway="1" width="2.00"/>
    <type id="highway.step" priority="1" numLanes="1" speed="1.39" allow="pedestrian" oneway="1" width="2.00"/>
    <type id="highway.steps" priority="1" numLanes="1" speed="1.39" allow="pedestrian" oneway="1" width="2.00"/>
    <type id="highway.tertiary" priority="6" numLanes="1" speed="22.22" disallow="tram rail_urban rail rail_electric ship" oneway="0"/>
    <type id="highway.tertiary_link" priority="5" numLanes="1" speed="22.22" disallow="tram rail_urban rail rail_electric ship" oneway="0"/>
    <type id="highway.track" priority="1" numLanes="1" speed="5.56" disallow="tram rail_urban rail rail_electric ship" oneway="0"/>
    <type id="highway.trunk" priority="11" numLanes="2" speed="27.78" disallow="tram rail_urban rail rail_electric bicycle pedestrian ship" oneway="0"/>
    <type id="highway.trunk_link" priority="10" numLanes="1" speed="22.22" disallow="tram rail_urban rail rail_electric bicycle pedestrian ship" oneway="0"/>
    <type id="highway.unclassified" priority="5" numLanes="1" speed="13.89" disallow="tram rail_urban rail rail_electric ship" oneway="0"/>
    <type id="highway.unsurfaced" priority="1" numLanes="1" speed="8.33" disallow="tram rail_urban rail rail_electric ship" oneway="0"/>
    <type id="railway.light_rail" priority="15" numLanes="1" speed="27.78" allow="rail_urban" oneway="1"/>
    <type id="railway.preserved" priority="15" numLanes="1" speed="27.78" allow="rail" oneway="1"/>
    <type id="railway.rail" priority="15" numLanes="1" speed="83.33" allow="rail rail_electric" oneway="1"/>
    <type id="railway.subway" priority="15" numLanes="1" speed="27.78" allow="rail_urban" oneway="1"/>
    <type id="railway.tram" priority="15" numLanes="1" speed="13.89" allow="tram" oneway="1"/>

    <edge id=":1037144333_0" function="internal">
        <lane id=":1037144333_0_0" index="0" disallow="tram rail_urban rail rail_electric bicycle pedestrian ship" speed="13.89" length="0.74" shape="6715.59,6918.31 6715.46,6919.16"/>
        <lane id=":1037144333_0_1" index="1" disallow="tram rail_urban rail rail_electric bicycle pedestrian ship" speed="13.89" length="0.74" shape="6712.32,6917.90 6712.22,6918.52"/>
    </edge>
    <edge id=":1037144333_2" function="internal">
        <lane id=":1037144333_2_0" index="0" disallow="tram rail_urban rail rail_electric bicycle pedestrian ship" speed="13.89" length="2.41" shape="6712.32,6917.90 6711.35,6919.03 6710.48,6919.34"/>
    </edge>
    <edge id=":1037144333_6" function="internal">
        <lane id=":1037144333_6_0" index="0" speed="13.89" length="2.41" shape="6710.48,6919.34 6709.71,6918.83 6709.04,6917.50"/>
    </edge>
    <edge id=":1037144333_3" function="internal">
        <lane id=":1037144333_3_0" index="0" disallow="tram rail_urban rail rail_electric bicycle pedestrian ship" speed="13.89" length="0.25" shape="6705.75,6917.22 6705.77,6917.10"/>
        <lane id=":1037144333_3_1" index="1" disallow="tram rail_urban rail rail_electric bicycle pedestrian ship" speed="13.89" length="0.25" shape="6708.98,6917.87 6709.04,6917.50"/>
    </edge>
    <edge id=":1037144333_5" function="internal">
        <lane id=":1037144333_5_0" index="0" disallow="tram rail_urban rail rail_electric bicycle pedestrian ship" speed="13.89" length="2.41" shape="6708.98,6917.87 6710.04,6916.82 6710.92,6916.57"/>
    </edge>
    <edge id=":1037144333_7" function="internal">
        <lane id=":1037144333_7_0" index="0" speed="13.89" length="2.41" shape="6710.92,6916.57 6711.65,6917.14 6712.22,6918.52"/>
    </edge>
    <edge id=":1065718034_0" function="internal">
        <lane id=":1065718034_0_0" index="0" disallow="tram rail_urban rail rail_electric ship" speed="11.11" length="5.16" shape="7169.31,7838.18 7168.10,7837.48 7166.94,7837.35 7165.85,7837.78 7164.82,7838.76"/>
    </edge>
    <edge id=":1065718034_1" function="internal">
        <lane id=":1065718034_1_0" index="0" disallow="tram rail_urban rail rail_electric ship" speed="11.11" length="16.19" shape="7169.31,7838.18 7156.51,7828.27"/>
    </edge>
    <edge id=":1065718034_2" function="internal">
        <lane id=":1065718034_2_0" index="0" disallow="tram rail_urban rail rail_electric ship" speed="11.11" length="7.57" shape="7169.31,7838.18 7166.20,7835.22 7164.56,7832.38"/>
    </edge>
    <edge id=":1065718034_3" function="internal">
        <lane id=":1065718034_3_0" index="0" disallow="tram rail_urban rail rail_electric ship" speed="11.11" length="2.41" shape="7169.31,7838.18 7168.85,7836.76 7169.03,7835.86"/>
    </edge>
    <edge id=":1065718034_18" function="internal">
        <lane id=":1065718034_18_0" index="0" speed="11.11" length="5.63" shape="7164.56,7832.38 7164.41,7829.67 7165.72,7827.07"/>
    </edge>
    <edge id=":1065718034_19" function="internal">
        <lane id=":1065718034_19_0" index="0" speed="11.11" length="2.41" shape="7169.03,7835.86 7169.86,7835.47 7171.35,7835.58"/>
    </edge>
    <edge id=":1065718034_4" function="internal">
        <lane id=":1065718034_4_0" index="0" disallow="tram rail_urban rail rail_electric ship" speed="11.11" length="5.02" shape="7170.85,7831.22 7170.15,7832.41 7169.99,7833.53 7170.39,7834.58 7171.35,7835.58"/>
    </edge>
    <edge id=":1065718034_5" function="internal">
        <lane id=":1065718034_5_0" index="0" disallow="tram rail_urban rail rail_electric ship" speed="11.11" length="9.68" shape="7170.85,7831.22 7164.82,7838.76"/>
        <lane id=":1065718034_5_1" index="1" disallow="tram rail_urban rail rail_electric ship" speed="11.11" length="9.68" shape="7168.29,7829.15 7162.23,7836.72"/>
    </edge>
    <edge id=":1065718034_7" function="internal">
        <lane id=":1065718034_7_0" index="0" disallow="tram rail_urban rail rail_electric ship" speed="11.11" length="4.53" shape="7168.29,7829.15 7166.03,7830.97 7164.43,7831.25"/>
    </edge>
    <edge id=":1065718034_8" function="internal">
        <lane id=":1065718034_8_0" index="0" disallow="tram rail_urban rail rail_electric ship" speed="11.11" length="2.41" shape="7168.29,7829.15 7166.87,7829.59 7165.97,7829.39"/>
    </edge>
    <edge id=":1065718034_20" function="internal">
        <lane id=":1065718034_20_0" index="0" speed="11.11" length="8.71" shape="7164.43,7831.25 7163.31,7831.44 7160.14,7830.54 7156.51,7828.27"/>
    </edge>
    <edge id=":1065718034_21" function="internal">
        <lane id=":1065718034_21_0" index="0" speed="11.11" length="2.41" shape="7165.97,7829.39 7165.59,7828.55 7165.72,7827.07"/>
    </edge>
    <edge id=":1065718034_9" function="internal">
        <lane id=":1065718034_9_0" index="0" disallow="tram rail_urban rail rail_electric ship" speed="11.11" length="5.32" shape="7158.51,7825.65 7159.75,7826.34 7160.94,7826.46 7162.08,7826.01 7163.16,7824.99"/>
    </edge>
    <edge id=":1065718034_10" function="internal">
        <lane id=":1065718034_10_0" index="0" disallow="tram rail_urban rail rail_electric ship" speed="11.11" length="16.23" shape="7158.51,7825.65 7171.35,7835.58"/>
    </edge>
    <edge id=":1065718034_11" function="internal">
        <lane id=":1065718034_11_0" index="0" disallow="tram rail_urban rail rail_electric ship" speed="11.11" length="7.72" shape="7158.51,7825.65 7161.66,7828.57 7163.33,7831.38 7163.34,7831.53"/>
    </edge>
    <edge id=":1065718034_12" function="internal">
        <lane id=":1065718034_12_0" index="0" disallow="tram rail_urban rail rail_electric ship" speed="11.11" length="2.41" shape="7158.51,7825.65 7158.99,7827.06 7158.82,7827.96"/>
    </edge>
    <edge id=":1065718034_22" function="internal">
        <lane id=":1065718034_22_0" index="0" speed="11.11" length="5.49" shape="7163.34,7831.53 7163.52,7834.10 7162.23,7836.72"/>
    </edge>
    <edge id=":1065718034_23" function="internal">
        <lane id=":1065718034_23_0" index="0" speed="11.11" length="2.41" shape="7158.82,7827.96 7157.99,7828.37 7156.51,7828.27"/>
    </edge>
    <edge id=":1065718034_13" function="internal">
        <lane id=":1065718034_13_0" index="0" disallow="tram rail_urban rail rail_electric ship" speed="11.11" length="5.02" shape="7157.05,7832.62 7157.75,7831.43 7157.89,7830.31 7157.47,7829.25 7156.51,7828.27"/>
    </edge>
    <edge id=":1065718034_14" function="internal">
        <lane id=":1065718034_14_0" index="0" disallow="tram rail_urban rail rail_electric ship" speed="11.11" length="9.75" shape="7157.05,7832.62 7163.16,7824.99"/>
        <lane id=":1065718034_14_1" index="1" disallow="tram rail_urban rail rail_electric ship" speed="11.11" length="9.75" shape="7159.64,7834.67 7165.72,7827.07"/>
    </edge>
    <edge id=":1065718034_16" function="internal">
        <lane id=":1065718034_16_0" index="0" disallow="tram rail_urban rail rail_electric ship" speed="11.11" length="4.58" shape="7159.64,7834.67 7161.88,7832.81 7163.53,7832.53"/>
    </edge>
    <edge id=":1065718034_17" function="internal">
        <lane id=":1065718034_17_0" index="0" disallow="tram rail_urban rail rail_electric ship" speed="11.11" length="2.41" shape="7159.64,7834.67 7161.06,7834.21 7161.96,7834.40"/>
    </edge>
    <edge id=":1065718034_24" function="internal">
        <lane id=":1065718034_24_0" index="0" speed="11.11" length="8.64" shape="7163.53,7832.53 7164.58,7832.35 7167.74,7833.27 7171.35,7835.58"/>
    </edge>
    <edge id=":1065718034_25" function="internal">
        <lane id=":1065718034_25_0" index="0" speed="11.11" length="2.41" shape="7161.96,7834.40 7162.35,7835.23 7162.23,7836.72"/>
    </edge>
    <edge id=":1065718064_0" function="internal">
        <lane id=":1065718064_0_0" index="0" disallow="tram rail_urban rail rail_electric ship" speed="11.11" length="0.35" shape="7463.65,7233.64 7463.58,7234.02"/>
        <lane id=":1065718064_0_1" index="1" disallow="tram rail_urban rail rail_electric ship" speed="11.11" length="0.35" shape="7460.39,7233.12 7460.34,7233.42"/>
    </edge>
    <edge id=":1065718064_2" function="internal">
        <lane id=":1065718064_2_0" index="0" disallow="tram rail_urban rail rail_electric ship" speed="11.11" length="2.41" shape="7460.39,7233.12 7459.38,7234.21 7458.50,7234.48"/>
    </edge>
    <edge id=":1065718064_6" function="internal">
        <lane id=":1065718064_6_0" index="0" speed="11.11" length="2.41" shape="7458.50,7234.48 7457.75,7233.94 7457.13,7232.59"/>
    </edge>
    <edge id=":1065718064_3" function="internal">
        <lane id=":1065718064_3_0" index="0" disallow="tram rail_urban rail rail_electric ship" speed="11.11" length="0.21" shape="7453.85,7232.24 7453.88,7232.06"/>
        <lane id=":1065718064_3_1" index="1" disallow="tram rail_urban rail rail_electric ship" speed="11.11" length="0.21" shape="7457.09,7232.83 7457.13,7232.59"/>
    </edge>
    <edge id=":1065718064_5" function="internal">
        <lane id=":1065718064_5_0" index="0" disallow="tram rail_urban rail rail_electric ship" speed="11.11" length="2.41" shape="7457.09,7232.83 7458.13,7231.76 7459.01,7231.50"/>
    </edge>
    <edge id=":1065718064_7" function="internal">
        <lane id=":1065718064_7_0" index="0" speed="11.11" length="2.41" shape="7459.01,7231.50 7459.75,7232.06 7460.34,7233.42"/>
    </edge>
    <edge id=":1067372203_0" function="internal">
        <lane id=":1067372203_0_0" index="0" disallow="tram rail_urban rail rail_electric ship" speed="12.50" length="2.48" shape="7287.07,7932.60 7285.88,7930.43"/>
    </edge>
    <edge id=":1067372203_1" function="internal">
        <lane id=":1067372203_1_0" index="0" disallow="tram rail_urban rail rail_electric ship" speed="11.11" length="9.73" shape="7287.07,7932.60 7279.36,7926.67"/>
    </edge>
    <edge id=":1067372203_2" function="internal">
        <lane id=":1067372203_2_0" index="0" disallow="tram rail_urban rail rail_electric ship" speed="12.50" length="5.54" shape="7287.07,7932.60 7285.08,7930.71 7284.08,7928.72 7284.09,7928.16"/>
    </edge>
    <edge id=":1067372203_3" function="internal">
        <lane id=":1067372203_3_0" index="0" disallow="tram rail_urban rail rail_electric ship" speed="11.11" length="2.41" shape="7287.07,7932.60 7286.56,7931.20 7286.72,7930.29"/>
    </edge>
    <edge id=":1067372203_16" function="internal">
        <lane id=":1067372203_16_0" index="0" speed="12.50" length="3.96" shape="7284.09,7928.16 7284.09,7926.62 7285.11,7924.42"/>
    </edge>
    <edge id=":1067372203_17" function="internal">
        <lane id=":1067372203_17_0" index="0" speed="11.11" length="2.41" shape="7286.72,7930.29 7287.54,7929.87 7289.03,7929.94"/>
    </edge>
    <edge id=":1067372203_4" function="internal">
        <lane id=":1067372203_4_0" index="0" disallow="tram rail_urban rail rail_electric ship" speed="12.50" length="4.35" shape="7287.85,7926.25 7287.45,7927.19 7287.51,7928.12 7288.04,7929.04 7289.03,7929.94"/>
    </edge>
    <edge id=":1067372203_5" function="internal">
        <lane id=":1067372203_5_0" index="0" disallow="tram rail_urban rail rail_electric ship" speed="13.89" length="4.73" shape="7287.85,7926.25 7287.02,7927.39 7286.43,7928.19 7286.06,7929.07 7285.88,7930.43"/>
    </edge>
    <edge id=":1067372203_6" function="internal">
        <lane id=":1067372203_6_0" index="0" disallow="tram rail_urban rail rail_electric ship" speed="12.50" length="4.30" shape="7287.85,7926.25 7286.14,7928.04 7284.41,7928.62"/>
    </edge>
    <edge id=":1067372203_7" function="internal">
        <lane id=":1067372203_7_0" index="0" disallow="tram rail_urban rail rail_electric ship" speed="13.89" length="2.51" shape="7287.85,7926.25 7286.48,7926.82 7285.56,7926.71 7285.51,7926.62"/>
    </edge>
    <edge id=":1067372203_18" function="internal">
        <lane id=":1067372203_18_0" index="0" speed="12.50" length="5.56" shape="7284.41,7928.62 7284.15,7928.71 7281.90,7928.25 7279.36,7926.67"/>
    </edge>
    <edge id=":1067372203_19" function="internal">
        <lane id=":1067372203_19_0" index="0" speed="13.89" length="2.31" shape="7285.51,7926.62 7285.10,7925.90 7285.11,7924.42"/>
    </edge>
    <edge id=":1067372203_8" function="internal">
        <lane id=":1067372203_8_0" index="0" disallow="tram rail_urban rail rail_electric ship" speed="12.50" length="4.22" shape="7281.43,7924.09 7282.61,7924.88 7283.61,7925.19 7284.45,7925.04 7285.11,7924.42"/>
    </edge>
    <edge id=":1067372203_9" function="internal">
        <lane id=":1067372203_9_0" index="0" disallow="tram rail_urban rail rail_electric ship" speed="11.11" length="9.58" shape="7281.43,7924.09 7289.03,7929.94"/>
    </edge>
    <edge id=":1067372203_10" function="internal">
        <lane id=":1067372203_10_0" index="0" disallow="tram rail_urban rail rail_electric ship" speed="12.50" length="7.09" shape="7281.43,7924.09 7283.43,7925.87 7284.84,7927.52 7285.65,7929.04 7285.74,7929.55"/>
    </edge>
    <edge id=":1067372203_11" function="internal">
        <lane id=":1067372203_11_0" index="0" disallow="tram rail_urban rail rail_electric ship" speed="11.11" length="2.41" shape="7281.43,7924.09 7281.88,7925.51 7281.68,7926.41"/>
    </edge>
    <edge id=":1067372203_20" function="internal">
        <lane id=":1067372203_20_0" index="0" speed="12.50" length="0.89" shape="7285.74,7929.55 7285.88,7930.43"/>
    </edge>
    <edge id=":1067372203_21" function="internal">
        <lane id=":1067372203_21_0" index="0" speed="11.11" length="2.41" shape="7281.68,7926.41 7280.85,7926.80 7279.36,7926.67"/>
    </edge>
    <edge id=":1067372203_12" function="internal">
        <lane id=":1067372203_12_0" index="0" disallow="tram rail_urban rail rail_electric ship" speed="12.50" length="4.89" shape="7282.58,7930.24 7282.21,7929.35 7281.29,7928.32 7280.20,7927.35 7279.36,7926.67"/>
    </edge>
    <edge id=":1067372203_13" function="internal">
        <lane id=":1067372203_13_0" index="0" disallow="tram rail_urban rail rail_electric ship" speed="13.89" length="6.49" shape="7282.58,7930.24 7282.80,7928.37 7283.25,7927.13 7283.99,7925.99 7285.11,7924.42"/>
    </edge>
    <edge id=":1067372203_14" function="internal">
        <lane id=":1067372203_14_0" index="0" disallow="tram rail_urban rail rail_electric ship" speed="12.50" length="3.82" shape="7282.58,7930.24 7283.09,7928.41 7284.33,7927.75 7284.83,7927.88"/>
    </edge>
    <edge id=":1067372203_15" function="internal">
        <lane id=":1067372203_15_0" index="0" disallow="tram rail_urban rail rail_electric ship" speed="13.89" length="2.60" shape="7282.58,7930.24 7283.48,7929.05 7284.32,7928.69 7284.48,7928.78"/>
    </edge>
    <edge id=":1067372203_22" function="internal">
        <lane id=":1067372203_22_0" index="0" speed="12.50" length="4.73" shape="7284.83,7927.88 7286.31,7928.26 7289.03,7929.94"/>
    </edge>
    <edge id=":1067372203_23" function="internal">
        <lane id=":1067372203_23_0" index="0" speed="13.89" length="2.22" shape="7284.48,7928.78 7285.12,7929.15 7285.88,7930.43"/>
    </edge>
    <edge id=":1067372451_0" function="internal">
        <lane id=":1067372451_0_0" index="0" disallow="tram rail_urban rail rail_electric ship" speed="11.11" length="0.31" shape="7341.99,7580.21 7341.85,7580.49"/>
        <lane id=":1067372451_0_1" index="1" disallow="tram rail_urban rail rail_electric ship" speed="11.11" length="0.31" shape="7339.06,7578.69 7338.92,7578.96"/>
    </edge>
    <edge id=":1067372451_2" function="internal">
        <lane id=":1067372451_2_0" index="0" disallow="tram rail_urban rail rail_electric ship" speed="11.11" length="2.41" shape="7339.06,7578.69 7337.76,7579.41 7336.84,7579.39"/>
    </edge>
    <edge id=":1067372451_6" function="internal">
        <lane id=":1067372451_6_0" index="0" speed="11.11" length="2.41" shape="7336.84,7579.39 7336.30,7578.65 7336.13,7577.17"/>
    </edge>
    <edge id=":1067372451_3" function="internal">
        <lane id=":1067372451_3_0" index="0" disallow="tram rail_urban rail rail_electric ship" speed="11.11" length="0.29" shape="7333.08,7575.90 7333.21,7575.65"/>
        <lane id=":1067372451_3_1" index="1" disallow="tram rail_urban rail rail_electric ship" speed="11.11" length="0.29" shape="7336.00,7577.43 7336.13,7577.17"/>
    </edge>
    <edge id=":1067372451_5" function="internal">
        <lane id=":1067372451_5_0" index="0" disallow="tram rail_urban rail rail_electric ship" speed="11.11" length="2.41" shape="7336.00,7577.43 7337.30,7576.71 7338.23,7576.73"/>
    </edge>
    <edge id=":1067372451_7" function="internal">
        <lane id=":1067372451_7_0" index="0" speed="11.11" length="2.41" shape="7338.23,7576.73 7338.77,7577.48 7338.92,7578.96"/>
    </edge>
    <edge id=":1067372470_0" function="internal">
        <lane id=":1067372470_0_0" index="0" disallow="tram rail_urban rail rail_electric ship" speed="11.11" length="1.23" shape="7403.85,7460.40 7403.71,7460.80 7403.60,7461.07 7403.48,7461.33 7403.28,7461.71"/>
        <lane id=":1067372470_0_1" index="1" disallow="tram rail_urban rail rail_electric ship" speed="11.11" length="1.23" shape="7400.75,7459.28 7400.65,7459.56 7400.57,7459.75 7400.48,7459.94 7400.34,7460.21"/>
    </edge>
    <edge id=":1067372470_2" function="internal">
        <lane id=":1067372470_2_0" index="0" disallow="tram rail_urban rail rail_electric ship" speed="11.11" length="2.41" shape="7400.75,7459.28 7399.55,7460.16 7398.64,7460.27"/>
    </edge>
    <edge id=":1067372470_6" function="internal">
        <lane id=":1067372470_6_0" index="0" speed="11.11" length="2.41" shape="7398.64,7460.27 7398.00,7459.60 7397.65,7458.15"/>
    </edge>
    <edge id=":1067372470_3" function="internal">
        <lane id=":1067372470_3_0" index="0" disallow="tram rail_urban rail rail_electric ship" speed="11.11" length="0.41" shape="7394.46,7457.21 7394.49,7457.16 7394.51,7457.13 7394.52,7457.09 7394.54,7457.03"/>
        <lane id=":1067372470_3_1" index="1" disallow="tram rail_urban rail rail_electric ship" speed="11.11" length="0.41" shape="7397.40,7458.71 7397.49,7458.55 7397.54,7458.44 7397.59,7458.32 7397.65,7458.15"/>
    </edge>
    <edge id=":1067372470_5" function="internal">
        <lane id=":1067372470_5_0" index="0" disallow="tram rail_urban rail rail_electric ship" speed="11.11" length="2.41" shape="7397.40,7458.71 7398.70,7457.99 7399.62,7457.99"/>
    </edge>
    <edge id=":1067372470_7" function="internal">
        <lane id=":1067372470_7_0" index="0" speed="11.11" length="2.41" shape="7399.62,7457.99 7400.17,7458.74 7400.34,7460.21"/>
    </edge>
    <edge id=":1067372520_0" function="internal">
        <lane id=":1067372520_0_0" index="0" disallow="tram rail_urban rail rail_electric ship" speed="11.11" length="9.69" shape="7191.70,7856.55 7184.19,7850.43"/>
    </edge>
    <edge id=":1067372520_1" function="internal">
        <lane id=":1067372520_1_0" index="0" disallow="tram rail_urban rail rail_electric ship" speed="12.50" length="5.63" shape="7191.70,7856.55 7189.69,7854.55 7188.74,7852.52 7188.77,7851.97"/>
    </edge>
    <edge id=":1067372520_2" function="internal">
        <lane id=":1067372520_2_0" index="0" disallow="tram rail_urban rail rail_electric ship" speed="11.11" length="2.41" shape="7191.70,7856.55 7191.24,7855.14 7191.42,7854.24"/>
    </edge>
    <edge id=":1067372520_9" function="internal">
        <lane id=":1067372520_9_0" index="0" speed="12.50" length="3.92" shape="7188.77,7851.97 7188.85,7850.45 7190.00,7848.35"/>
    </edge>
    <edge id=":1067372520_10" function="internal">
        <lane id=":1067372520_10_0" index="0" speed="11.11" length="2.41" shape="7191.42,7854.24 7192.25,7853.84 7193.74,7853.96"/>
    </edge>
    <edge id=":1067372520_3" function="internal">
        <lane id=":1067372520_3_0" index="0" disallow="tram rail_urban rail rail_electric ship" speed="12.50" length="4.22" shape="7192.58,7850.40 7192.17,7851.24 7192.22,7852.11 7192.75,7853.01 7193.74,7853.96"/>
    </edge>
    <edge id=":1067372520_4" function="internal">
        <lane id=":1067372520_4_0" index="0" disallow="tram rail_urban rail rail_electric ship" speed="12.50" length="9.61" shape="7192.58,7850.40 7190.79,7852.01 7188.79,7852.54 7186.59,7852.02 7184.19,7850.43"/>
    </edge>
    <edge id=":1067372520_5" function="internal">
        <lane id=":1067372520_5_0" index="0" disallow="tram rail_urban rail rail_electric ship" speed="13.89" length="4.82" shape="7192.58,7850.40 7191.17,7850.86 7190.27,7850.67 7189.88,7849.83 7190.00,7848.35"/>
    </edge>
    <edge id=":1067372520_6" function="internal">
        <lane id=":1067372520_6_0" index="0" disallow="tram rail_urban rail rail_electric ship" speed="12.50" length="4.19" shape="7186.32,7847.92 7187.46,7848.71 7188.45,7849.04 7189.29,7848.92 7190.00,7848.35"/>
    </edge>
    <edge id=":1067372520_7" function="internal">
        <lane id=":1067372520_7_0" index="0" disallow="tram rail_urban rail rail_electric ship" speed="11.11" length="9.56" shape="7186.32,7847.92 7193.74,7853.96"/>
    </edge>
    <edge id=":1067372520_8" function="internal">
        <lane id=":1067372520_8_0" index="0" disallow="tram rail_urban rail rail_electric ship" speed="11.11" length="2.41" shape="7186.32,7847.92 7186.74,7849.35 7186.52,7850.24"/>
    </edge>
    <edge id=":1067372520_11" function="internal">
        <lane id=":1067372520_11_0" index="0" speed="11.11" length="2.41" shape="7186.52,7850.24 7185.67,7850.60 7184.19,7850.43"/>
    </edge>
    <edge id=":1067372769_0" function="internal">
        <lane id=":1067372769_0_0" index="0" disallow="tram rail_urban rail rail_electric ship" speed="11.11" length="4.82" shape="8121.18,8443.19 8122.03,8444.41 8122.12,8445.33 8121.43,8445.95 8119.98,8446.27"/>
    </edge>
    <edge id=":1067372825_0" function="internal">
        <lane id=":1067372825_0_0" index="0" disallow="tram rail_urban rail rail_electric ship" speed="12.50" length="4.58" shape="7282.53,7691.02 7281.83,7692.45 7281.67,7693.55 7282.05,7694.31 7282.98,7694.75"/>
    </edge>
    <edge id=":1067372825_1" function="internal">
        <lane id=":1067372825_1_0" index="0" disallow="tram rail_urban rail rail_electric ship" speed="11.11" length="13.79" shape="7282.53,7691.02 7280.33,7694.54 7278.73,7696.89 7277.00,7699.15 7274.43,7702.41"/>
        <lane id=":1067372825_1_1" index="1" disallow="tram rail_urban rail rail_electric ship" speed="11.11" length="13.79" shape="7279.71,7689.30 7277.58,7692.72 7276.02,7695.01 7274.34,7697.20 7271.83,7700.37"/>
    </edge>
    <edge id=":1067372825_3" function="internal">
        <lane id=":1067372825_3_0" index="0" disallow="tram rail_urban rail rail_electric ship" speed="16.66" length="5.14" shape="7279.71,7689.30 7277.56,7691.62 7275.74,7692.40"/>
    </edge>
    <edge id=":1067372825_4" function="internal">
        <lane id=":1067372825_4_0" index="0" disallow="tram rail_urban rail rail_electric ship" speed="11.11" length="2.41" shape="7279.71,7689.30 7278.36,7689.93 7277.44,7689.85"/>
    </edge>
    <edge id=":1067372825_14" function="internal">
        <lane id=":1067372825_14_0" index="0" speed="16.66" length="9.87" shape="7275.74,7692.40 7274.57,7692.90 7270.72,7693.17 7266.04,7692.40"/>
    </edge>
    <edge id=":1067372825_15" function="internal">
        <lane id=":1067372825_15_0" index="0" speed="11.11" length="2.41" shape="7277.44,7689.85 7276.95,7689.07 7276.90,7687.58"/>
    </edge>
    <edge id=":1067372825_5" function="internal">
        <lane id=":1067372825_5_0" index="0" disallow="tram rail_urban rail rail_electric ship" speed="16.66" length="8.69" shape="7266.74,7689.18 7268.93,7689.40 7270.88,7688.92 7272.60,7687.74 7274.08,7685.86"/>
    </edge>
    <edge id=":1067372825_6" function="internal">
        <lane id=":1067372825_6_0" index="0" disallow="tram rail_urban rail rail_electric ship" speed="18.05" length="17.17" shape="7266.74,7689.18 7282.98,7694.75"/>
    </edge>
    <edge id=":1067372825_7" function="internal">
        <lane id=":1067372825_7_0" index="0" disallow="tram rail_urban rail rail_electric ship" speed="16.66" length="15.94" shape="7266.74,7689.18 7271.41,7690.96 7273.82,7693.42 7273.96,7696.56 7271.83,7700.37"/>
    </edge>
    <edge id=":1067372825_8" function="internal">
        <lane id=":1067372825_8_0" index="0" disallow="tram rail_urban rail rail_electric ship" speed="22.22" length="2.78" shape="7266.74,7689.18 7267.78,7690.25 7268.00,7691.14 7267.77,7691.43"/>
    </edge>
    <edge id=":1067372825_16" function="internal">