<?xml version="1.0" ?>
<routes>
	<vType accel="2.6" color="1,1,0" decel="4.5" id="vtype0" length="2.5" maxSpeed="14" minGap="2.5" sigma="0.5"/>
		<route edges="517156339 242311749#0 242311749#1 242311749#2 84686450#0 84686450#1 84686450#2 666871294#0 666871294#1 666871294#2 666871294#3 666871294#4 666871294#5 666871294#6 666871294#7 666871294#8 666871294#9 666871294#10 666871294#11 666871294#12 666871294#13 662409825#4 59725235#0 59725235#1 59725235#2 59725223#0 59725223#1 59725223#2 59725223#3 59727176#0 59727176#1 59727176#2 59727176#3 59727176#4 662409826#0 662409826#1 662409826#2 662409826#3" id="route0"/>
	<!-- <route edges="-59715202#1 -59715202#0 -662409827#1 -662409827#0 -662409826#3 -662409826#2 -662409826#1 -662409826#0 -59727176#4 -59727176#3 -59727176#2 -59727176#1 -59727176#0 -59725223#3 -59725223#2 -59725223#1 -59725223#0 571701532#2 571701532#3 571701532#4 59730979 83591805#0 83591805#1 83591805#2 83591805#3 83591805#4 83591805#5 83591805#6 83591805#7 60794727 296181700 59730983#0 59730983#1 59730983#2 84865097 32662529#0 32662529#1 32662529#2 32662529#3" id="route0"/> -->
	<flow begin="0" id="flow0" number="60000" period="1" route="route0" type="vtype0"/>
  <route edges="84686443#0 84686443#1 84686443#2 84686443#3 84686443#4 45479377#0 45479377#1 45479377#2 45479377#3 45479377#4 45479377#5 662409825#0 662409825#1 662409825#2 662409825#3 83210409 242311748 242311750#0 242311750#1 242311750#2 242311750#3 83210410 83210401#0 83210401#1 242311575#0 242311575#1 242311575#2 242311575#3 83210402#0 83210402#1 83210402#2 83210402#3 83210402#4 83210402#5 83210402#6 83210402#7 83210402#8 621492421#0 621492421#1 621492421#2" id="route1"/>
	<flow begin="0" id="flow1" number="60000" period="1" route="route1" type="vtype0"/>
</routes>

<!-- -59718914#3 -59718914#2 -59718914#1 -59718914#0 -59715199#2 -59715199#1 -59715199#0 切り取った -->

 <!-- <route edges="84686443#0 84686443#1 84686443#2 84686443#3 84686443#4 45479377#0 45479377#1 45479377#2 45479377#3 45479377#4 45479377#5 662409825#0 662409825#1 662409825#2 662409825#3 83210409 242311748 242311750#0 242311750#1 242311750#2 242311750#3 83210410 83210401#0 83210401#1 242311575#0 242311575#1 242311575#2 242311575#3 83210402#0 83210402#1 83210402#2 83210402#3 83210402#4 83210402#5 83210402#6 83210402#7 83210402#8 621492421#0 621492421#1 621492421#2 621492421#3 621492421#4 621492421#5 23141371 83593822#0 83593822#1 83593822#2 83593822#3 83593822#4 666871299 44840928#0 44840928#1 44840928#2 550244200 673142310#0 673142310#1 673142310#2" id="route1"/> -->