[General]
sim-time-limit = 3600s
network = artery.inet.World
*.withStoryboard = true
*.storyboard.python = "mt-its2017"
*.storyboard.canvas = "World"

*.traci.core.version = -1
*.traci.launcher.typename = "PosixLauncher"
*.traci.launcher.sumocfg = "ingolstadt-north.sumocfg"

*.node[*].wlan[*].typename = "VanetNic"
*.node[*].wlan[*].radio.channelNumber = 180
*.node[*].wlan[*].radio.carrierFrequency = 5.9 GHz
*.node[*].wlan[*].radio.transmitter.power = 200 mW

*.node[*].middleware.updateInterval = 0.1s
*.node[*].middleware.datetime = "2017-06-26 12:00:00"
*.node[*].middleware.services = xmldoc("services.xml")
*.node[*].middleware.DEN.useCases = xmldoc("usecases.xml")
*.node[*].middleware.DEN.*.nonUrbanEnvironment = true

[Config sumo-gui]
*.traci.launcher.sumo = "sumo-gui"
